1
    SWAT Dec 23 2016    VER 2016/Rev 664                                                                 0/ 0/   0      0: 0: 0

    General Input/Output section (file.cio):                                        
    2020/2/22 0:00:00 ARCGIS-SWAT interface AV                                      
                                                                                    


       SUB      GIS  MON   AREAkm2  PRECIPmm SNOMELTmm     PETmm      ETmm      SWmm    PERCmm    SURQmm    GW_Qmm    WYLDmm  SYLDt/ha ORGNkg/ha ORGPkg/haNSURQkg/ha SOLPkg/ha SEDPkg/ha LAT Q(mm)LATNO3kg/hGWNO3kg/haCHOLAmic/LCBODU mg/L DOXQ mg/L TNO3kg/ha   QTILEmm TVAPkg/ha
BIGSUB   1        0    1.12166E+03     0.509     0.500    27.478     4.228     0.974     0.000     0.000     0.000     0.000     0.000     0.000     0.000     0.000     0.000     0.000     0.000     0.000     0.000 .00000E+00 0.000E+00 0.000E+00 0.000E+00 0.000E+00 0.000E+00
BIGSUB   2        0    1.37816E+03     1.221     0.000    10.994     1.073     7.093     0.000     0.000     0.000     0.000     0.000     0.000     0.000     0.000     0.000     0.000     0.000     0.000     0.000 .00000E+00 0.000E+00 0.000E+00 0.000E+00 0.000E+00 0.000E+00
BIGSUB   3        0    1.14857E+04     0.000     0.000    16.592     1.846     3.501     0.000     0.000     0.000     0.000     0.000     0.000     0.000     0.000     0.000     0.000     0.000     0.000     0.000 .00000E+00 0.000E+00 0.000E+00 0.000E+00 0.000E+00 0.000E+00
BIGSUB   4        0    1.15464E+03     0.514     0.500    26.131     1.599     0.647     0.000     0.000     0.000     0.000     0.000     0.000     0.000     0.000     0.000     0.000     0.000     0.000     0.000 .00000E+00 0.000E+00 0.000E+00 0.000E+00 0.000E+00 0.000E+00
BIGSUB   5        0    1.26428E+03     0.000     0.000    22.941     1.806     7.049     0.000     0.000     0.000     0.000     0.000     0.000     0.000     0.000     0.000     0.000     0.000     0.000     0.000 .00000E+00 0.000E+00 0.000E+00 0.000E+00 0.000E+00 0.000E+00
BIGSUB   6        0    1.58563E+02     0.514     0.000    22.541     1.186     4.223     0.000     0.000     0.000     0.000     0.000     0.000     0.000     0.000     0.000     0.000     0.000     0.000     0.000 .00000E+00 0.000E+00 0.000E+00 0.000E+00 0.000E+00 0.000E+00
BIGSUB   7        0    1.30909E+03     0.307     0.000    24.462     1.195     0.987     0.000     0.000     0.000     0.000     0.000     0.000     0.000     0.000     0.000     0.000     0.000     0.000     0.000 .00000E+00 0.000E+00 0.000E+00 0.000E+00 0.000E+00 0.000E+00
BIGSUB   8        0    1.41455E+03     0.000     0.000    22.990     1.608     6.150     0.000     0.000     0.000     0.000     0.000     0.000     0.000     0.000     0.000     0.000     0.000     0.000     0.000 .00000E+00 0.000E+00 0.000E+00 0.000E+00 0.000E+00 0.000E+00
BIGSUB   9        0    1.71882E+03     0.000     0.000    22.945     1.816     5.654     0.000     0.000     0.000     0.000     0.000     0.000     0.000     0.000     0.000     0.000     0.000     0.000     0.000 .00000E+00 0.000E+00 0.000E+00 0.000E+00 0.000E+00 0.000E+00
BIGSUB  10        0    1.10392E+04     0.000     0.000    21.929     1.857     5.651     0.000     0.000     0.000     0.000     0.000     0.000     0.000     0.000     0.000     0.000     0.000     0.000     0.000 .00000E+00 0.000E+00 0.000E+00 0.000E+00 0.000E+00 0.000E+00
BIGSUB  11        0    1.41096E+03     0.000     0.000    23.142     1.784     5.345     0.000     0.000     0.000     0.000     0.000     0.000     0.000     0.000     0.000     0.000     0.000     0.000     0.000 .00000E+00 0.000E+00 0.000E+00 0.000E+00 0.000E+00 0.000E+00
BIGSUB  12        0    1.16915E+03     1.029     0.000    14.017     1.412     6.848     0.000     0.000     0.000     0.000     0.000     0.000     0.000     0.000     0.000     0.000     0.000     0.000     0.000 .00000E+00 0.000E+00 0.000E+00 0.000E+00 0.000E+00 0.000E+00
BIGSUB  13        0    1.33387E+03     0.973     0.000    14.939     1.242     5.331     0.000     0.000     0.000     0.000     0.000     0.000     0.000     0.000     0.000     0.000     0.000     0.000     0.000 .00000E+00 0.000E+00 0.000E+00 0.000E+00 0.000E+00 0.000E+00
BIGSUB  14        0    1.78238E+02     1.029     0.000    13.833     1.192     8.356     0.000     0.000     0.000     0.000     0.000     0.000     0.000     0.000     0.000     0.000     0.000     0.000     0.000 .00000E+00 0.000E+00 0.000E+00 0.000E+00 0.000E+00 0.000E+00
BIGSUB  15        0    1.11183E+04     1.025     0.000    13.719     1.029     6.958     0.000     0.000     0.000     0.000     0.000     0.000     0.000     0.000     0.000     0.000     0.000     0.000     0.000 .00000E+00 0.000E+00 0.000E+00 0.000E+00 0.000E+00 0.000E+00
BIGSUB  16        0    1.14036E+03     1.029     0.000    14.126     1.216    10.032     0.000     0.000     0.000     0.000     0.000     0.000     0.000     0.000     0.000     0.000     0.000     0.000     0.000 .00000E+00 0.000E+00 0.000E+00 0.000E+00 0.000E+00 0.000E+00
BIGSUB  17        0    1.46105E+02     0.823     0.000    20.812     1.935     8.099     0.000     0.000     0.000     0.000     0.000     0.000     0.000     0.000     0.000     0.000     0.000     0.000     0.000 .00000E+00 0.000E+00 0.000E+00 0.000E+00 0.000E+00 0.000E+00
BIGSUB  18        0    1.21983E+03     0.957     0.000    12.960     1.227     5.787     0.000     0.000     0.000     0.000     0.000     0.000     0.000     0.000     0.000     0.000     0.000     0.000     0.000 .00000E+00 0.000E+00 0.000E+00 0.000E+00 0.000E+00 0.000E+00
BIGSUB  19        0    1.43761E+03     0.804     0.000    20.272     1.790     7.948     0.000     0.000     0.000     0.000     0.000     0.000     0.000     0.000     0.000     0.000     0.000     0.000     0.000 .00000E+00 0.000E+00 0.000E+00 0.000E+00 0.000E+00 0.000E+00
BIGSUB  20        0    1.34348E+03     0.816     0.000    20.437     1.732     9.284     0.000     0.000     0.000     0.000     0.000     0.000     0.000     0.000     0.000     0.000     0.000     0.000     0.000 .00000E+00 0.000E+00 0.000E+00 0.000E+00 0.000E+00 0.000E+00
BIGSUB  21        0    1.61613E+03     0.777     0.000    19.869     2.092    10.016     0.000     0.000     0.000     0.000     0.000     0.000     0.000     0.000     0.000     0.000     0.000     0.000     0.000 .00000E+00 0.000E+00 0.000E+00 0.000E+00 0.000E+00 0.000E+00
BIGSUB  22        0    1.67181E+03     2.639     0.000     8.488     1.490     9.915     0.000     0.000     0.000     0.000     0.000     0.000     0.000     0.000     0.000     0.000     0.000     0.000     0.000 .00000E+00 0.000E+00 0.000E+00 0.000E+00 0.000E+00 0.000E+00
BIGSUB  23        0    1.35635E+03     0.752     0.000    19.204     1.778     8.877     0.000     0.000     0.000     0.000     0.000     0.000     0.000     0.000     0.000     0.000     0.000     0.000     0.000 .00000E+00 0.000E+00 0.000E+00 0.000E+00 0.000E+00 0.000E+00
BIGSUB   1        0    2.12166E+03     6.815     2.300    52.396    10.981     0.731     0.000     0.000     0.000     0.005     0.000     0.000     0.000     0.000     0.000     0.000     0.005     0.002     0.000 .00000E+00 0.000E+00 0.000E+00 0.000E+00 0.000E+00 0.000E+00
BIGSUB   2        0    2.37816E+03     0.000     1.200    15.941     2.453     6.927     0.000     0.002     0.000     0.002     0.001     0.014     0.002     0.001     0.000     0.001     0.000     0.000     0.000 .00000E+00 0.000E+00 0.000E+00 0.000E+00 0.000E+00 0.000E+00
BIGSUB   3        0    2.14857E+04     1.783     1.800    28.319     4.177     2.709     0.000     0.017     0.000     0.017     0.014     0.113     0.014     0.021     0.000     0.008     0.000     0.000     0.000 .00000E+00 0.000E+00 0.000E+00 0.000E+00 0.000E+00 0.000E+00
BIGSUB   4        0    2.15464E+03     6.887     2.300    51.367     7.854     0.322     0.000     0.000     0.000     0.021     0.000     0.000     0.000     0.000     0.000     0.000     0.021     0.009     0.000 .00000E+00 0.000E+00 0.000E+00 0.000E+00 0.000E+00 0.000E+00
BIGSUB   5        0    2.26428E+03     3.592     2.700    27.243     2.598     7.762     0.000     0.041     0.000     0.041     0.095     0.898     0.110     0.080     0.000     0.058     0.000     0.000     0.000 .00000E+00 0.000E+00 0.000E+00 0.000E+00 0.000E+00 0.000E+00
BIGSUB   6        0    2.58563E+02     6.892     7.200    25.701     2.343     9.142     0.000     0.002     0.000     0.002     0.005     0.006     0.001     0.002     0.000     0.001     0.000     0.000     0.000 .00000E+00 0.000E+00 0.000E+00 0.000E+00 0.000E+00 0.000E+00
BIGSUB   7        0    2.30909E+03     0.204     0.300    43.006     1.655     0.661     0.000     0.000     0.000     0.000     0.000     0.000     0.000     0.000     0.000     0.000     0.000     0.000     0.000 .00000E+00 0.000E+00 0.000E+00 0.000E+00 0.000E+00 0.000E+00
BIGSUB   8        0    2.41455E+03     3.600     2.700    27.229     2.395     6.903     0.000     0.027     0.000     0.027     0.067     0.633     0.078     0.054     0.000     0.041     0.000     0.000     0.000 .00000E+00 0.000E+00 0.000E+00 0.000E+00 0.000E+00 0.000E+00
BIGSUB   9        0    2.71882E+03     3.577     2.700    27.273     2.676     6.504     0.000     0.025     0.000     0.025     0.044     0.447     0.055     0.049     0.000     0.029     0.000     0.000     0.000 .00000E+00 0.000E+00 0.000E+00 0.000E+00 0.000E+00 0.000E+00
BIGSUB  10        0    2.10392E+04     3.394     2.700    26.115     2.817     6.507     0.000     0.025     0.000     0.025     0.045     0.446     0.055     0.046     0.000     0.029     0.000     0.000     0.000 .00000E+00 0.000E+00 0.000E+00 0.000E+00 0.000E+00 0.000E+00
BIGSUB  11        0    2.41096E+03     3.600     2.700    27.506     2.643     6.190     0.000     0.014     0.000     0.014     0.028     0.276     0.034     0.028     0.000     0.018     0.000     0.000     0.000 .00000E+00 0.000E+00 0.000E+00 0.000E+00 0.000E+00 0.000E+00
BIGSUB  12        0    2.16915E+03     0.411     1.400    42.292     4.239     5.356     0.000     0.005     0.000     0.005     0.008     0.077     0.009     0.001     0.000     0.005     0.000     0.000     0.000 .00000E+00 0.000E+00 0.000E+00 0.000E+00 0.000E+00 0.000E+00
BIGSUB  13        0    2.33387E+03     0.389     1.400    15.880     2.735     5.195     0.000     0.014     0.000     0.014     0.028     0.250     0.031     0.004     0.000     0.016     0.000     0.000     0.000 .00000E+00 0.000E+00 0.000E+00 0.000E+00 0.000E+00 0.000E+00
BIGSUB  14        0    2.78238E+02     0.411     1.400    42.112     4.006     6.683     0.000     0.010     0.000     0.010     0.015     0.147     0.018     0.003     0.000     0.009     0.000     0.000     0.000 .00000E+00 0.000E+00 0.000E+00 0.000E+00 0.000E+00 0.000E+00
BIGSUB  15        0    2.11183E+04     0.410     1.400    41.810     3.674     5.415     0.000     0.005     0.000     0.005     0.012     0.102     0.013     0.001     0.000     0.007     0.000     0.000     0.000 .00000E+00 0.000E+00 0.000E+00 0.000E+00 0.000E+00 0.000E+00
BIGSUB  16        0    2.14036E+03     0.411     1.400    42.137     4.196     8.196     0.000     0.003     0.000     0.003     0.004     0.043     0.005     0.001     0.000     0.003     0.000     0.000     0.000 .00000E+00 0.000E+00 0.000E+00 0.000E+00 0.000E+00 0.000E+00
BIGSUB  17        0    2.46105E+02     0.617     1.200    41.756     3.771     6.905     0.000     0.000     0.000     0.000     0.000     0.001     0.000     0.000     0.000     0.000     0.000     0.000     0.000 .00000E+00 0.000E+00 0.000E+00 0.000E+00 0.000E+00 0.000E+00
BIGSUB  18        0    2.21983E+03     0.383     1.400    39.391     3.772     4.423     0.000     0.005     0.000     0.005     0.009     0.080     0.010     0.001     0.000     0.005     0.000     0.000     0.000 .00000E+00 0.000E+00 0.000E+00 0.000E+00 0.000E+00 0.000E+00
BIGSUB  19        0    2.43761E+03     0.603     1.200    40.781     3.428     6.868     0.000     0.002     0.000     0.002     0.003     0.030     0.004     0.001     0.000     0.002     0.000     0.000     0.000 .00000E+00 0.000E+00 0.000E+00 0.000E+00 0.000E+00 0.000E+00
BIGSUB  20        0    2.34348E+03     0.612     1.200    41.277     3.482     7.959     0.000     0.001     0.000     0.001     0.001     0.014     0.002     0.000     0.000     0.001     0.000     0.000     0.000 .00000E+00 0.000E+00 0.000E+00 0.000E+00 0.000E+00 0.000E+00
BIGSUB  21        0    2.61613E+03     0.583     1.200    39.648     3.974     8.650     0.000     0.001     0.000     0.001     0.001     0.011     0.001     0.000     0.000     0.001     0.000     0.000     0.000 .00000E+00 0.000E+00 0.000E+00 0.000E+00 0.000E+00 0.000E+00
BIGSUB  22        0    2.67181E+03     0.000     2.700    39.748     6.104     8.042     0.000     0.018     0.000     0.018     0.028     0.267     0.033     0.004     0.000     0.017     0.000     0.000     0.000 .00000E+00 0.000E+00 0.000E+00 0.000E+00 0.000E+00 0.000E+00
BIGSUB  23        0    2.35635E+03     0.564     1.200    38.375     3.771     7.449     0.000     0.000     0.000     0.000     0.000     0.004     0.000     0.000     0.000     0.000     0.000     0.000     0.000 .00000E+00 0.000E+00 0.000E+00 0.000E+00 0.000E+00 0.000E+00
BIGSUB   1        0    3.12166E+03     6.408     3.300    66.204    12.784     0.322     0.000     0.000     0.000     0.011     0.000     0.000     0.000     0.000     0.000     0.000     0.011     0.004     0.000 .00000E+00 0.000E+00 0.000E+00 0.000E+00 0.000E+00 0.000E+00
BIGSUB   2        0    3.37816E+03    14.145    13.900    38.777     8.555    10.150     0.000     3.610     0.000     3.610     2.009    21.377     2.619     0.153     0.002     1.499     0.000     0.000     0.000 .00000E+00 0.000E+00 0.000E+00 0.000E+00 0.000E+00 0.000E+00
BIGSUB   3        0    3.14857E+04    12.479    12.600    37.683     9.686     4.526     0.000     3.276     0.000     3.276     1.733     8.064     0.988     0.358     0.001     0.721     0.000     0.000     0.000 .00000E+00 0.000E+00 0.000E+00 0.000E+00 0.000E+00 0.000E+00
BIGSUB   4        0    3.15464E+03     6.476     3.300    64.221     7.683     0.103     0.000     0.000     0.000     0.046     0.000     0.000     0.000     0.000     0.000     0.000     0.046     0.019     0.000 .00000E+00 0.000E+00 0.000E+00 0.000E+00 0.000E+00 0.000E+00
BIGSUB   5        0    3.26428E+03     8.415     9.000    34.552    10.243     7.031     0.000     0.486     0.000     0.486     0.782     7.329     0.898     0.363     0.000     0.475     0.000     0.000     0.000 .00000E+00 0.000E+00 0.000E+00 0.000E+00 0.000E+00 0.000E+00
BIGSUB   6        0    3.58563E+02     6.480     6.300    38.644     9.604     6.100     0.000     0.006     0.000     0.006     0.006     0.008     0.001     0.001     0.000     0.001     0.000     0.000     0.000 .00000E+00 0.000E+00 0.000E+00 0.000E+00 0.000E+00 0.000E+00
BIGSUB   7        0    3.30909E+03    19.108    18.300    48.193    12.892     6.949     0.000     0.725     0.000     0.725     2.761    20.652     2.530     0.274     0.000     1.341     0.000     0.000     0.000 .00000E+00 0.000E+00 0.000E+00 0.000E+00 0.000E+00 0.000E+00
BIGSUB   8        0    3.41455E+03     8.435     9.000    34.463    10.047     6.291     0.000     0.358     0.000     0.358     0.586     5.478     0.671     0.268     0.000     0.355     0.000     0.000     0.000 .00000E+00 0.000E+00 0.000E+00 0.000E+00 0.000E+00 0.000E+00
BIGSUB   9        0    3.71882E+03     8.381     9.000    34.529    10.047     6.305     0.000     0.371     0.000     0.371     0.378     3.955     0.485     0.270     0.000     0.256     0.000     0.000     0.000 .00000E+00 0.000E+00 0.000E+00 0.000E+00 0.000E+00 0.000E+00
BIGSUB  10        0    3.10392E+04     7.951     9.000    32.995     9.855     6.338     0.000     0.382     0.000     0.382     0.386     3.976     0.487     0.260     0.000     0.258     0.000     0.000     0.000 .00000E+00 0.000E+00 0.000E+00 0.000E+00 0.000E+00 0.000E+00
BIGSUB  11        0    3.41096E+03     8.435     9.000    34.826    10.200     5.949     0.000     0.243     0.000     0.243     0.271     2.790     0.342     0.177     0.000     0.181     0.000     0.000     0.000 .00000E+00 0.000E+00 0.000E+00 0.000E+00 0.000E+00 0.000E+00
BIGSUB  12        0    3.16915E+03     1.954     1.700    68.334     4.791     4.606     0.000     0.007     0.000     0.007     0.006     0.070     0.009     0.015     0.000     0.005     0.000     0.000     0.000 .00000E+00 0.000E+00 0.000E+00 0.000E+00 0.000E+00 0.000E+00
BIGSUB  13        0    3.33387E+03     1.848     1.900    45.004     4.990     3.890     0.000     0.024     0.000     0.024     0.061     0.515     0.063     0.044     0.000     0.033     0.000     0.000     0.000 .00000E+00 0.000E+00 0.000E+00 0.000E+00 0.000E+00 0.000E+00
BIGSUB  14        0    3.78238E+02     1.954     1.700    68.002     4.213     5.835     0.000     0.015     0.000     0.015     0.012     0.134     0.016     0.033     0.000     0.009     0.000     0.000     0.000 .00000E+00 0.000E+00 0.000E+00 0.000E+00 0.000E+00 0.000E+00
BIGSUB  15        0    3.11183E+04     1.948     1.700    67.450     3.903     4.554     0.000     0.008     0.000     0.008     0.009     0.094     0.012     0.017     0.000     0.006     0.000     0.000     0.000 .00000E+00 0.000E+00 0.000E+00 0.000E+00 0.000E+00 0.000E+00
BIGSUB  16        0    3.14036E+03     1.954     1.700    67.757     4.512     7.092     0.000     0.004     0.000     0.004     0.003     0.040     0.005     0.009     0.000     0.003     0.000     0.000     0.000 .00000E+00 0.000E+00 0.000E+00 0.000E+00 0.000E+00 0.000E+00
BIGSUB  17        0    3.46105E+02     1.543     1.400    66.850     4.299     5.962     0.000     0.000     0.000     0.000     0.000     0.001     0.000     0.000     0.000     0.000     0.000     0.000     0.000 .00000E+00 0.000E+00 0.000E+00 0.000E+00 0.000E+00 0.000E+00
BIGSUB  18        0    3.21983E+03     1.819     1.700    63.724     4.317     3.730     0.000     0.008     0.000     0.008     0.007     0.073     0.009     0.015     0.000     0.005     0.000     0.000     0.000 .00000E+00 0.000E+00 0.000E+00 0.000E+00 0.000E+00 0.000E+00
BIGSUB  19        0    3.43761E+03     1.508     1.400    65.458     3.886     6.004     0.000     0.004     0.000     0.004     0.004     0.041     0.005     0.009     0.000     0.003     0.000     0.000     0.000 .00000E+00 0.000E+00 0.000E+00 0.000E+00 0.000E+00 0.000E+00
BIGSUB  20        0    3.34348E+03     1.531     1.400    66.368     3.726     6.924     0.000     0.002     0.000     0.002     0.002     0.020     0.002     0.005     0.000     0.001     0.000     0.000     0.000 .00000E+00 0.000E+00 0.000E+00 0.000E+00 0.000E+00 0.000E+00
BIGSUB  21        0    3.61613E+03     1.458     1.400    63.472     4.599     7.568     0.000     0.002     0.000     0.002     0.001     0.016     0.002     0.004     0.000     0.001     0.000     0.000     0.000 .00000E+00 0.000E+00 0.000E+00 0.000E+00 0.000E+00 0.000E+00
BIGSUB  22        0    3.67181E+03    25.805    24.200    47.320    16.693    16.703     0.000     2.733     0.000     2.733     1.871    20.601     2.524     0.556     0.001     1.358     0.000     0.000     0.000 .00000E+00 0.000E+00 0.000E+00 0.000E+00 0.000E+00 0.000E+00
BIGSUB  23        0    3.35635E+03     1.410     1.400    61.601     4.113     6.505     0.000     0.001     0.000     0.001     0.000     0.005     0.001     0.002     0.000     0.000     0.000     0.000     0.000 .00000E+00 0.000E+00 0.000E+00 0.000E+00 0.000E+00 0.000E+00
BIGSUB   1        0    4.12166E+03     2.848     0.000   114.148    12.935     0.242     0.000     0.000     0.000     0.021     0.000     0.000     0.000     0.000     0.000     0.000     0.021     0.007     0.000 .00000E+00 0.000E+00 0.000E+00 0.000E+00 0.000E+00 0.000E+00
BIGSUB   2        0    4.37816E+03    31.037    21.900    73.807    25.852    15.177     0.043     1.408     0.000     1.428     1.285     6.996     0.857     0.106     0.001     0.588     0.020     0.000     0.000 .00000E+00 0.000E+00 0.000E+00 0.000E+00 0.000E+00 0.000E+00
BIGSUB   3        0    4.14857E+04     6.140     4.900    87.165    12.895     1.348     0.000     0.000     0.000     0.012     0.000     0.000     0.000     0.000     0.000     0.000     0.012     0.001     0.000 .00000E+00 0.000E+00 0.000E+00 0.000E+00 0.000E+00 0.000E+00
BIGSUB   4        0    4.15464E+03     2.878     0.000   112.132     4.496     0.103     0.000     0.000     0.000     0.082     0.000     0.000     0.000     0.000     0.000     0.000     0.082     0.031     0.000 .00000E+00 0.000E+00 0.000E+00 0.000E+00 0.000E+00 0.000E+00
BIGSUB   5        0    4.26428E+03    20.934    14.500    74.476    16.892    10.783     0.000     1.202     0.000     1.265     3.230    33.241     4.072     0.403     0.001     2.165     0.064     0.001     0.000 .00000E+00 0.000E+00 0.000E+00 0.000E+00 0.000E+00 0.000E+00
BIGSUB   6        0    4.58563E+02     2.880     0.900    76.845     6.478     2.501     0.000     0.000     0.000     0.092     0.000     0.000     0.000     0.000     0.000     0.000     0.092     0.009     0.000 .00000E+00 0.000E+00 0.000E+00 0.000E+00 0.000E+00 0.000E+00
BIGSUB   7        0    4.30909E+03    55.383     0.000    85.189    30.922    23.420     0.161     0.024     0.000     7.024     0.115     0.467     0.057     0.000     0.000     0.034     7.000     0.103     0.000 .00000E+00 0.000E+00 0.000E+00 0.000E+00 0.000E+00 0.000E+00
BIGSUB   8        0    4.41455E+03    20.984    14.500    74.461    16.666    10.250     0.000     0.930     0.000     0.981     2.560    25.209     3.088     0.275     0.000     1.666     0.051     0.001     0.000 .00000E+00 0.000E+00 0.000E+00 0.000E+00 0.000E+00 0.000E+00
BIGSUB   9        0    4.71882E+03    20.851    14.500    74.629    17.582     9.945     0.000     0.980     0.000     0.996     1.700    18.422     2.257     0.250     0.001     1.228     0.016     0.000     0.000 .00000E+00 0.000E+00 0.000E+00 0.000E+00 0.000E+00 0.000E+00
BIGSUB  10        0    4.10392E+04    19.781    14.500    71.322    16.972    10.182     0.000     1.017     0.000     1.036     1.753    18.469     2.262     0.237     0.001     1.234     0.019     0.001     0.000 .00000E+00 0.000E+00 0.000E+00 0.000E+00 0.000E+00 0.000E+00
BIGSUB  11        0    4.41096E+03    20.984    14.500    74.885    17.812     9.660     0.000     0.667     0.000     0.687     1.276    13.298     1.629     0.142     0.000     0.896     0.021     0.001     0.000 .00000E+00 0.000E+00 0.000E+00 0.000E+00 0.000E+00 0.000E+00
BIGSUB  12        0    4.16915E+03     8.229     0.600    92.322    11.592     3.707     0.000     0.000     0.000     0.164     0.000     0.000     0.000     0.000     0.000     0.000     0.164     0.048     0.000 .00000E+00 0.000E+00 0.000E+00 0.000E+00 0.000E+00 0.000E+00
BIGSUB  13        0    4.33387E+03     7.781     6.700    72.513    10.756     3.337     0.000     0.080     0.000     0.081     0.274     2.768     0.339     0.121     0.000     0.179     0.000     0.000     0.000 .00000E+00 0.000E+00 0.000E+00 0.000E+00 0.000E+00 0.000E+00
BIGSUB  14        0    4.78238E+02     8.229     0.600    91.835    10.943     4.739     0.000     0.000     0.000     0.141     0.000     0.000     0.000     0.000     0.000     0.000     0.141     0.054     0.000 .00000E+00 0.000E+00 0.000E+00 0.000E+00 0.000E+00 0.000E+00
BIGSUB  15        0    4.11183E+04     8.203     0.600    91.107    10.235     3.612     0.000     0.000     0.000     0.272     0.000     0.000     0.000     0.000     0.000     0.000     0.272     0.083     0.000 .00000E+00 0.000E+00 0.000E+00 0.000E+00 0.000E+00 0.000E+00
BIGSUB  16        0    4.14036E+03     8.229     0.600    91.429    10.903     6.051     0.000     0.000     0.000     0.197     0.000     0.000     0.000     0.000     0.000     0.000     0.197     0.070     0.000 .00000E+00 0.000E+00 0.000E+00 0.000E+00 0.000E+00 0.000E+00
BIGSUB  17        0    4.46105E+02    10.492     0.300    92.123    11.287     6.563     0.000     0.001     0.000     0.813     0.001     0.004     0.001     0.001     0.000     0.000     0.811     0.099     0.000 .00000E+00 0.000E+00 0.000E+00 0.000E+00 0.000E+00 0.000E+00
BIGSUB  18        0    4.21983E+03     7.658     0.600    86.072    10.389     3.133     0.000     0.000     0.000     0.159     0.000     0.000     0.000     0.000     0.000     0.000     0.159     0.042     0.000 .00000E+00 0.000E+00 0.000E+00 0.000E+00 0.000E+00 0.000E+00
BIGSUB  19        0    4.43761E+03    10.256     0.300    90.250    10.797     6.765     0.000     0.005     0.000     0.469     0.002     0.003     0.000     0.003     0.000     0.001     0.464     0.068     0.000 .00000E+00 0.000E+00 0.000E+00 0.000E+00 0.000E+00 0.000E+00
BIGSUB  20        0    4.34348E+03    10.410     0.300    91.535    10.540     7.530     0.000     0.001     0.000     0.572     0.001     0.003     0.000     0.000     0.000     0.000     0.572     0.101     0.000 .00000E+00 0.000E+00 0.000E+00 0.000E+00 0.000E+00 0.000E+00
BIGSUB  21        0    4.61613E+03     9.912     0.300    87.441    11.429     8.258     0.000     0.000     0.000     0.452     0.000     0.000     0.000     0.000     0.000     0.000     0.452     0.076     0.000 .00000E+00 0.000E+00 0.000E+00 0.000E+00 0.000E+00 0.000E+00
BIGSUB  22        0    4.67181E+03    61.190     0.000    86.185    34.479    39.574     2.120     0.386     0.127     3.475     1.784     6.513     0.798     0.001     0.000     0.499     2.960     0.058     0.000 .00000E+00 0.000E+00 0.000E+00 0.000E+00 0.000E+00 0.000E+00
BIGSUB  23        0    4.35635E+03     9.591     0.300    84.888    10.231     7.630     0.000     0.000     0.000     0.655     0.000     0.000     0.000     0.000     0.000     0.000     0.655     0.106     0.000 .00000E+00 0.000E+00 0.000E+00 0.000E+00 0.000E+00 0.000E+00
BIGSUB   1        0    5.12166E+03     9.459     0.000   169.443    22.699     0.162     0.000     0.000     0.000     0.334     0.000     0.000     0.000     0.000     0.000     0.000     0.334     0.051     0.000 .00000E+00 0.000E+00 0.000E+00 0.000E+00 0.000E+00 0.000E+00
BIGSUB   2        0    5.37816E+03    28.289     0.000   131.794    31.910    13.337     1.212     0.041     0.007     0.313     0.035     0.166     0.020     0.000     0.000     0.012     0.258     0.004     0.000 .00000E+00 0.000E+00 0.000E+00 0.000E+00 0.000E+00 0.000E+00
BIGSUB   3        0    5.14857E+04    28.324     0.000    97.708    18.030    13.688     0.000     0.009     0.000     0.169     0.011     0.016     0.002     0.000     0.000     0.002     0.161     0.005     0.000 .00000E+00 0.000E+00 0.000E+00 0.000E+00 0.000E+00 0.000E+00
BIGSUB   4        0    5.15464E+03     9.560     0.000   166.661    11.344     0.125     0.000     0.000     0.000     0.449     0.000     0.000     0.000     0.000     0.000     0.000     0.449     0.120     0.000 .00000E+00 0.000E+00 0.000E+00 0.000E+00 0.000E+00 0.000E+00
BIGSUB   5        0    5.26428E+03    55.825     0.000   121.951    36.475    22.414     0.618     0.162     0.000     6.353     0.761     3.762     0.461     0.000     0.000     0.254     6.191     0.103     0.000 .00000E+00 0.000E+00 0.000E+00 0.000E+00 0.000E+00 0.000E+00
BIGSUB   6        0    5.58563E+02     9.566     0.000   123.884     9.716     1.834     0.000     0.000     0.000     0.479     0.000     0.000     0.000     0.000     0.000     0.000     0.479     0.123     0.000 .00000E+00 0.000E+00 0.000E+00 0.000E+00 0.000E+00 0.000E+00
BIGSUB   7        0    5.30909E+03    49.865     0.000   139.632    42.415    23.446     0.237     0.376     0.088     9.523     1.667     9.058     1.110     0.001     0.000     0.599     9.057     0.143     0.000 .00000E+00 0.000E+00 0.000E+00 0.000E+00 0.000E+00 0.000E+00
BIGSUB   8        0    5.41455E+03    55.958     0.000   121.880    36.306    21.570     2.007     0.142     0.000     4.760     0.699     2.649     0.325     0.000     0.000     0.196     4.617     0.088     0.000 .00000E+00 0.000E+00 0.000E+00 0.000E+00 0.000E+00 0.000E+00
BIGSUB   9        0    5.71882E+03    55.602     0.000   122.229    39.405    22.791     2.551     0.161     0.000     1.219     0.579     2.027     0.248     0.000     0.000     0.162     1.056     0.026     0.000 .00000E+00 0.000E+00 0.000E+00 0.000E+00 0.000E+00 0.000E+00
BIGSUB  10        0    5.10392E+04    52.750     0.000   116.835    37.911    21.987     3.623     0.170     0.000     1.316     0.605     1.983     0.243     0.000     0.000     0.161     1.144     0.027     0.000 .00000E+00 0.000E+00 0.000E+00 0.000E+00 0.000E+00 0.000E+00
BIGSUB  11        0    5.41096E+03    55.958     0.000   122.611    38.983    21.731     2.479     0.111     0.000     2.012     0.453     1.219     0.149     0.000     0.000     0.108     1.899     0.056     0.000 .00000E+00 0.000E+00 0.000E+00 0.000E+00 0.000E+00 0.000E+00
BIGSUB  12        0    5.16915E+03    51.947     0.000   137.772    36.457    16.619     0.841     0.001     0.000     2.346     0.003     0.026     0.003     0.000     0.000     0.002     2.344     0.119     0.000 .00000E+00 0.000E+00 0.000E+00 0.000E+00 0.000E+00 0.000E+00
BIGSUB  13        0    5.33387E+03    49.119     0.000   116.702    33.241    16.766     2.755     0.002     0.000     1.642     0.008     0.058     0.007     0.000     0.000     0.004     1.639     0.069     0.000 .00000E+00 0.000E+00 0.000E+00 0.000E+00 0.000E+00 0.000E+00
BIGSUB  14        0    5.78238E+02    51.947     0.000   137.199    36.412    17.631     0.081     0.003     0.000     1.994     0.006     0.054     0.007     0.000     0.000     0.003     1.991     0.123     0.000 .00000E+00 0.000E+00 0.000E+00 0.000E+00 0.000E+00 0.000E+00
BIGSUB  15        0    5.11183E+04    51.781     0.000   136.381    33.664    16.730     0.304     0.001     0.000     3.854     0.004     0.033     0.004     0.000     0.000     0.002     3.853     0.197     0.000 .00000E+00 0.000E+00 0.000E+00 0.000E+00 0.000E+00 0.000E+00
BIGSUB  16        0    5.14036E+03    51.947     0.000   136.989    34.351    20.631     0.000     0.001     0.000     3.332     0.002     0.015     0.002     0.000     0.000     0.001     3.331     0.176     0.000 .00000E+00 0.000E+00 0.000E+00 0.000E+00 0.000E+00 0.000E+00
BIGSUB  17        0    5.46105E+02    49.272     0.000   138.479    33.012    19.034     0.663     0.002     0.000     4.571     0.008     0.060     0.007     0.000     0.000     0.004     4.568     0.140     0.000 .00000E+00 0.000E+00 0.000E+00 0.000E+00 0.000E+00 0.000E+00
BIGSUB  18        0    5.21983E+03    48.343     0.000   128.256    32.076    16.391     2.118     0.001     0.000     2.310     0.003     0.026     0.003     0.000     0.000     0.002     2.308     0.109     0.000 .00000E+00 0.000E+00 0.000E+00 0.000E+00 0.000E+00 0.000E+00
BIGSUB  19        0    5.43761E+03    48.165     0.000   135.356    33.939    18.426     0.784     0.090     0.000     2.318     0.308     1.937     0.237     0.002     0.000     0.131     2.228     0.095     0.000 .00000E+00 0.000E+00 0.000E+00 0.000E+00 0.000E+00 0.000E+00
BIGSUB  20        0    5.34348E+03    48.884     0.000   137.143    33.677    19.499     0.326     0.026     0.000     3.039     0.133     0.953     0.117     0.000     0.000     0.062     3.013     0.134     0.000 .00000E+00 0.000E+00 0.000E+00 0.000E+00 0.000E+00 0.000E+00
BIGSUB  21        0    5.61613E+03    46.546     0.000   131.248    34.069    21.135     0.044     0.020     0.000     2.402     0.107     0.751     0.092     0.000     0.000     0.049     2.382     0.095     0.000 .00000E+00 0.000E+00 0.000E+00 0.000E+00 0.000E+00 0.000E+00
BIGSUB  22        0    5.67181E+03    58.453     0.000   138.642    49.771    45.757     1.693     1.114     1.188     6.258     3.205    18.006     2.206     0.001     0.001     1.202     3.933     0.069     0.001 .00000E+00 0.000E+00 0.000E+00 0.000E+00 0.000E+00 0.000E+00
BIGSUB  23        0    5.35635E+03    45.039     0.000   127.041    29.765    20.708     1.942     0.011     0.000     3.667     0.032     0.263     0.032     0.000     0.000     0.017     3.655     0.134     0.000 .00000E+00 0.000E+00 0.000E+00 0.000E+00 0.000E+00 0.000E+00
BIGSUB   1        0    6.12166E+03    14.850     0.000   184.161    28.411     0.438     0.000     0.000     0.000     0.880     0.000     0.000     0.000     0.000     0.000     0.000     0.880     0.026     0.000 .00000E+00 0.000E+00 0.000E+00 0.000E+00 0.000E+00 0.000E+00
BIGSUB   2        0    6.37816E+03    60.039     0.000   119.290    38.005    32.493     4.359     0.255     0.464     1.256     0.433     0.541     0.066     0.000     0.000     0.082     0.519     0.006     0.000 .00000E+00 0.000E+00 0.000E+00 0.000E+00 0.000E+00 0.000E+00
BIGSUB   3        0    6.14857E+04    89.627     0.000   126.614    55.410    39.679     8.353     2.802     0.488     4.328     5.398     8.202     1.005     0.002     0.001     1.010     1.021     0.013     0.001 .00000E+00 0.000E+00 0.000E+00 0.000E+00 0.000E+00 0.000E+00
BIGSUB   4        0    6.15464E+03    15.008     0.000   180.716    16.101     0.452     0.000     0.000     0.000     1.033     0.000     0.000     0.000     0.000     0.000     0.000     1.033     0.113     0.000 .00000E+00 0.000E+00 0.000E+00 0.000E+00 0.000E+00 0.000E+00
BIGSUB   5        0    6.26428E+03    68.857     0.000   104.639    47.877    32.660     1.039     0.118     0.126     9.752     0.882     4.151     0.508     0.001     0.000     0.271     9.503     0.152     0.000 .00000E+00 0.000E+00 0.000E+00 0.000E+00 0.000E+00 0.000E+00
BIGSUB   6        0    6.58563E+02    15.018     0.000   126.058    13.134     2.549     0.000     0.000     0.000     1.096     0.000     0.000     0.000     0.000     0.000     0.000     1.096     0.121     0.000 .00000E+00 0.000E+00 0.000E+00 0.000E+00 0.000E+00 0.000E+00
BIGSUB   7        0    6.30909E+03    83.790     0.000   123.116    45.282    43.830     1.733     0.513     0.174    16.265     4.374    17.937     2.197     0.000     0.000     1.205    15.573     0.220     0.000 .00000E+00 0.000E+00 0.000E+00 0.000E+00 0.000E+00 0.000E+00
BIGSUB   8        0    6.41455E+03    69.022     0.000   104.487    47.776    31.040     3.322     0.084     0.409     8.310     0.680     2.963     0.363     0.000     0.000     0.197     7.800     0.146     0.000 .00000E+00 0.000E+00 0.000E+00 0.000E+00 0.000E+00 0.000E+00
BIGSUB   9        0    6.71882E+03    68.583     0.000   105.087    50.016    35.106     4.220     0.089     0.543     3.191     0.474     2.365     0.290     0.000     0.000     0.159     2.536     0.059     0.001 .00000E+00 0.000E+00 0.000E+00 0.000E+00 0.000E+00 0.000E+00
BIGSUB  10        0    6.10392E+04    65.065     0.000   100.666    47.641    32.715     5.939     0.089     0.820     3.712     0.478     2.276     0.279     0.000     0.000     0.153     2.772     0.060     0.001 .00000E+00 0.000E+00 0.000E+00 0.000E+00 0.000E+00 0.000E+00
BIGSUB  11        0    6.41096E+03    69.022     0.000   105.273    49.708    32.886     4.101     0.050     0.509     4.788     0.320     1.400     0.171     0.000     0.000     0.096     4.207     0.111     0.001 .00000E+00 0.000E+00 0.000E+00 0.000E+00 0.000E+00 0.000E+00
BIGSUB  12        0    6.16915E+03    85.275     0.000   132.775    57.525    31.491     4.923     0.324     0.058     7.155     2.086    11.509     1.410     0.001     0.000     0.789     6.761     0.195     0.000 .00000E+00 0.000E+00 0.000E+00 0.000E+00 0.000E+00 0.000E+00
BIGSUB  13        0    6.33387E+03    80.632     0.000   108.838    49.189    30.278    13.218     0.500     0.772     6.710     2.663     9.549     1.170     0.001     0.000     0.755     5.402     0.149     0.001 .00000E+00 0.000E+00 0.000E+00 0.000E+00 0.000E+00 0.000E+00
BIGSUB  14        0    6.78238E+02    85.275     0.000   131.939    58.620    34.736     0.554     0.577     0.001     6.925     3.217    22.836     2.797     0.002     0.000     1.484     6.345     0.234     0.000 .00000E+00 0.000E+00 0.000E+00 0.000E+00 0.000E+00 0.000E+00
BIGSUB  15        0    6.11183E+04    85.003     0.000   130.875    55.270    32.584     1.816     0.310     0.022     9.950     2.477    14.703     1.801     0.001     0.000     0.975     9.614     0.238     0.000 .00000E+00 0.000E+00 0.000E+00 0.000E+00 0.000E+00 0.000E+00
BIGSUB  16        0    6.14036E+03    85.275     0.000   131.356    57.609    39.338     0.000     0.160     0.000     7.804     0.939     6.730     0.824     0.001     0.000     0.436     7.644     0.162     0.000 .00000E+00 0.000E+00 0.000E+00 0.000E+00 0.000E+00 0.000E+00
BIGSUB  17        0    6.46105E+02    85.686     0.000   125.035    55.793    34.502     3.436     0.241     0.129    11.487     1.464     0.763     0.094     0.000     0.000     0.189    11.107     0.165     0.000 .00000E+00 0.000E+00 0.000E+00 0.000E+00 0.000E+00 0.000E+00
BIGSUB  18        0    6.21983E+03    79.358     0.000   123.733    50.985    26.850    11.843     0.433     0.150     7.275     2.602    11.827     1.449     0.001     0.000     0.857     6.663     0.148     0.000 .00000E+00 0.000E+00 0.000E+00 0.000E+00 0.000E+00 0.000E+00
BIGSUB  19        0    6.43761E+03    83.761     0.000   122.358    55.698    34.183     3.753     0.881     0.188     8.493     4.897    23.150     2.836     0.002     0.000     1.653     7.413     0.222     0.000 .00000E+00 0.000E+00 0.000E+00 0.000E+00 0.000E+00 0.000E+00
BIGSUB  20        0    6.34348E+03    85.011     0.000   123.994    56.392    37.105     1.545     0.467     0.069     8.596     2.449    11.566     1.417     0.001     0.000     0.836     8.054     0.189     0.000 .00000E+00 0.000E+00 0.000E+00 0.000E+00 0.000E+00 0.000E+00
BIGSUB  21        0    6.61613E+03    80.945     0.000   118.664    55.710    41.588     0.201     0.270     0.010     6.540     1.346     9.082     1.112     0.001     0.000     0.595     6.259     0.137     0.000 .00000E+00 0.000E+00 0.000E+00 0.000E+00 0.000E+00 0.000E+00
BIGSUB  22        0    6.67181E+03   105.274     0.000   138.543    56.980    80.253     4.598     5.918     1.722    15.030    11.948    73.486     9.002     0.002     0.003     4.917     7.350     0.093     0.001 .00000E+00 0.000E+00 0.000E+00 0.000E+00 0.000E+00 0.000E+00
BIGSUB  23        0    6.35635E+03    78.324     0.000   115.031    50.118    35.031     8.573     0.504     0.533     9.204     2.128     3.262     0.400     0.000     0.000     0.398     8.141     0.078     0.001 .00000E+00 0.000E+00 0.000E+00 0.000E+00 0.000E+00 0.000E+00
BIGSUB   1        0    7.12166E+03    20.343     0.000   157.211    30.531     1.154     0.000     0.000     0.000     1.074     0.000     0.000     0.000     0.000     0.000     0.000     1.074     0.016     0.000 .00000E+00 0.000E+00 0.000E+00 0.000E+00 0.000E+00 0.000E+00
BIGSUB   2        0    7.37816E+03    90.669     0.000   123.769    61.450    55.489     5.930     0.997     2.289     4.208     1.068     2.601     0.319     0.001     0.000     0.296     0.870     0.006     0.001 .00000E+00 0.000E+00 0.000E+00 0.000E+00 0.000E+00 0.000E+00
BIGSUB   3        0    7.14857E+04    88.241     0.000   134.450    63.132    49.053     8.902     9.315     3.867    14.595     9.816    21.978     2.692     0.002     0.002     2.253     1.328     0.008     0.004 .00000E+00 0.000E+00 0.000E+00 0.000E+00 0.000E+00 0.000E+00
BIGSUB   4        0    7.15464E+03    20.559     0.000   154.154    21.081     0.638     0.000     0.000     0.000     1.283     0.000     0.000     0.000     0.000     0.000     0.000     1.283     0.050     0.000 .00000E+00 0.000E+00 0.000E+00 0.000E+00 0.000E+00 0.000E+00
BIGSUB   5        0    7.26428E+03   141.306     0.000   101.462    67.475    58.881    11.316     4.868     1.361    35.387    30.612   115.029    14.090     0.001     0.002     7.816    29.122     0.541     0.001 .00000E+00 0.000E+00 0.000E+00 0.000E+00 0.000E+00 0.000E+00
BIGSUB   6        0    7.58563E+02    20.573     0.000   127.542    19.857     1.893     0.000     0.000     0.000     1.348     0.000     0.000     0.000     0.000     0.000     0.000     1.348     0.041     0.000 .00000E+00 0.000E+00 0.000E+00 0.000E+00 0.000E+00 0.000E+00
BIGSUB   7        0    7.30909E+03   139.684     0.000   110.027    67.632    63.917    16.553     2.609     1.182    33.980    22.970    62.019     7.597     0.000     0.001     4.215    30.142     0.389     0.002 .00000E+00 0.000E+00 0.000E+00 0.000E+00 0.000E+00 0.000E+00
BIGSUB   8        0    7.41455E+03   141.645     0.000   101.319    65.524    56.664    18.652     4.773     4.191    32.927    33.473   105.890    12.971     0.001     0.002     7.745    23.874     0.438     0.003 .00000E+00 0.000E+00 0.000E+00 0.000E+00 0.000E+00 0.000E+00
BIGSUB   9        0    7.71882E+03   140.743     0.000   101.838    66.262    69.352    23.859     7.412     5.755    20.141    25.313   106.598    13.057     0.001     0.003     7.816     6.856     0.079     0.005 .00000E+00 0.000E+00 0.000E+00 0.000E+00 0.000E+00 0.000E+00
BIGSUB  10        0    7.10392E+04   133.523     0.000    97.507    62.525    68.314    22.129     7.872     7.265    22.705    27.450   112.356    13.763     0.001     0.003     8.272     7.427     0.076     0.005 .00000E+00 0.000E+00 0.000E+00 0.000E+00 0.000E+00 0.000E+00
BIGSUB  11        0    7.41096E+03   141.645     0.000   102.072    65.777    62.562    25.618     5.140     5.561    23.194    24.729    95.211    11.663     0.001     0.002     7.082    12.376     0.195     0.005 .00000E+00 0.000E+00 0.000E+00 0.000E+00 0.000E+00 0.000E+00
BIGSUB  12        0    7.16915E+03    59.044     0.000   133.441    59.934    24.629     2.607     0.275     1.809     9.972     1.214     4.746     0.581     0.000     0.000     0.365     7.838     0.134     0.001 .00000E+00 0.000E+00 0.000E+00 0.000E+00 0.000E+00 0.000E+00
BIGSUB  13        0    7.33387E+03    55.830     0.000   116.686    51.025    26.592     6.998     0.363     6.053    13.307     2.603     7.072     0.866     0.000     0.000     0.589     6.754     0.121     0.005 .00000E+00 0.000E+00 0.000E+00 0.000E+00 0.000E+00 0.000E+00
BIGSUB  14        0    7.78238E+02    59.044     0.000   132.676    61.021    28.281     0.291     0.386     0.182     8.363     1.421     9.727     1.191     0.000     0.000     0.639     7.790     0.179     0.000 .00000E+00 0.000E+00 0.000E+00 0.000E+00 0.000E+00 0.000E+00
BIGSUB  15        0    7.11183E+04    58.856     0.000   131.727    59.722    24.372     0.967     0.230     0.665    11.051     1.242     6.092     0.746     0.000     0.000     0.425    10.139     0.142     0.001 .00000E+00 0.000E+00 0.000E+00 0.000E+00 0.000E+00 0.000E+00
BIGSUB  16        0    7.14036E+03    59.044     0.000   132.313    63.238    30.894     0.000     0.102     0.000     7.816     0.390     2.800     0.343     0.000     0.000     0.181     7.714     0.112     0.000 .00000E+00 0.000E+00 0.000E+00 0.000E+00 0.000E+00 0.000E+00
BIGSUB  17        0    7.46105E+02    64.085     0.000   132.710    64.240    27.418     1.682     0.011     1.483     9.635     0.045     0.304     0.037     0.000     0.000     0.020     8.102     0.046     0.001 .00000E+00 0.000E+00 0.000E+00 0.000E+00 0.000E+00 0.000E+00
BIGSUB  18        0    7.21983E+03    54.948     0.000   124.265    52.530    19.481     6.292     0.430     4.479    12.963     1.761     4.835     0.592     0.000     0.000     0.430     7.935     0.107     0.003 .00000E+00 0.000E+00 0.000E+00 0.000E+00 0.000E+00 0.000E+00
BIGSUB  19        0    7.43761E+03    62.645     0.000   129.767    62.927    28.140     1.862     0.243     1.692     8.861     1.527     8.394     1.028     0.000     0.000     0.548     6.883     0.116     0.001 .00000E+00 0.000E+00 0.000E+00 0.000E+00 0.000E+00 0.000E+00
BIGSUB  20        0    7.34348E+03    63.580     0.000   131.444    65.262    29.906     0.815     0.122     0.703     7.865     0.765     4.640     0.568     0.000     0.000     0.301     7.023     0.098     0.001 .00000E+00 0.000E+00 0.000E+00 0.000E+00 0.000E+00 0.000E+00
BIGSUB  21        0    7.61613E+03    60.539     0.000   125.916    65.028    34.677     0.105     0.091     0.093     5.485     0.608     3.570     0.437     0.000     0.000     0.231     5.299     0.068     0.000 .00000E+00 0.000E+00 0.000E+00 0.000E+00 0.000E+00 0.000E+00
BIGSUB  22        0    7.67181E+03   130.688     0.000   121.716    73.204    98.107     9.364    24.175     3.207    36.902    28.968   177.956    21.798     0.001     0.010    11.672     9.439     0.056     0.001 .00000E+00 0.000E+00 0.000E+00 0.000E+00 0.000E+00 0.000E+00
BIGSUB  23        0    7.35635E+03    58.578     0.000   121.946    58.041    27.749     4.328     0.063     4.095    10.569     0.222     1.554     0.190     0.000     0.000     0.101     6.312     0.025     0.003 .00000E+00 0.000E+00 0.000E+00 0.000E+00 0.000E+00 0.000E+00
BIGSUB   1        0    8.12166E+03    42.516     0.000   162.459    42.867     9.190     0.000     0.000     0.000     3.739     0.000     0.000     0.000     0.000     0.000     0.000     3.739     0.010     0.000 .00000E+00 0.000E+00 0.000E+00 0.000E+00 0.000E+00 0.000E+00
BIGSUB   2        0    8.37816E+03    42.740     0.000   116.250    53.785    45.807     0.886     0.063     3.506     4.434     0.038     0.206     0.025     0.000     0.000     0.016     0.771     0.004     0.001 .00000E+00 0.000E+00 0.000E+00 0.000E+00 0.000E+00 0.000E+00
BIGSUB   3        0    8.14857E+04    88.043     0.000   127.438    70.331    55.540     7.309     6.129     5.753    13.393     3.924    11.721     1.436     0.002     0.001     1.060     1.352     0.004     0.002 .00000E+00 0.000E+00 0.000E+00 0.000E+00 0.000E+00 0.000E+00
BIGSUB   4        0    8.15464E+03    42.968     0.000   158.138    37.162     4.189     0.000     0.000     0.000     3.762     0.000     0.000     0.000     0.000     0.000     0.000     3.762     0.026     0.000 .00000E+00 0.000E+00 0.000E+00 0.000E+00 0.000E+00 0.000E+00
BIGSUB   5        0    8.26428E+03   127.965     0.000   108.169    71.674    75.092    10.764     5.801     4.001    31.442    24.649    75.707     9.273     0.002     0.002     5.022    21.522     0.174     0.004 .00000E+00 0.000E+00 0.000E+00 0.000E+00 0.000E+00 0.000E+00
BIGSUB   6        0    8.58563E+02    42.997     0.000   126.281    28.592    11.322     0.000     0.000     0.000     4.146     0.000     0.000     0.000     0.000     0.000     0.000     4.146     0.198     0.000 .00000E+00 0.000E+00 0.000E+00 0.000E+00 0.000E+00 0.000E+00
BIGSUB   7        0    8.30909E+03    50.683     0.000   125.566    65.005    43.565     0.172     0.468     4.996    15.617     6.290     2.404     0.294     0.000     0.000     0.167    10.003     0.020     0.008 .00000E+00 0.000E+00 0.000E+00 0.000E+00 0.000E+00 0.000E+00
BIGSUB   8        0    8.41455E+03   128.272     0.000   107.987    70.250    73.362    15.413     5.541     8.457    32.139    25.874    88.611    10.854     0.002     0.002     5.958    17.922     0.145     0.005 .00000E+00 0.000E+00 0.000E+00 0.000E+00 0.000E+00 0.000E+00
BIGSUB   9        0    8.71882E+03   127.455     0.000   108.629    72.265    87.552    20.572    10.144    11.812    27.956    19.204   110.777    13.569     0.003     0.005     7.392     5.715     0.030     0.010 .00000E+00 0.000E+00 0.000E+00 0.000E+00 0.000E+00 0.000E+00
BIGSUB  10        0    8.10392E+04   120.917     0.000   104.109    68.530    87.310    19.036    10.907    11.948    29.381    21.142   120.804    14.797     0.003     0.005     8.056     6.232     0.029     0.003 .00000E+00 0.000E+00 0.000E+00 0.000E+00 0.000E+00 0.000E+00
BIGSUB  11        0    8.41096E+03   128.272     0.000   108.903    71.527    80.635    20.433     7.046    12.251    29.403    21.051   114.469    14.021     0.002     0.003     7.621     9.810     0.070     0.011 .00000E+00 0.000E+00 0.000E+00 0.000E+00 0.000E+00 0.000E+00
BIGSUB  12        0    8.16915E+03    90.418     0.000   124.374    69.065    32.007     4.958     1.063     2.638    11.535     9.229    34.309     4.202     0.002     0.000     2.447     7.756     0.032     0.001 .00000E+00 0.000E+00 0.000E+00 0.000E+00 0.000E+00 0.000E+00
BIGSUB  13        0    8.33387E+03    85.495     0.000   114.158    55.657    37.789    13.190     1.274     7.529    15.537     3.767    17.145     2.100     0.001     0.000     1.215     6.521     0.053     0.002 .00000E+00 0.000E+00 0.000E+00 0.000E+00 0.000E+00 0.000E+00
BIGSUB  14        0    8.78238E+02    90.418     0.000   123.536    70.255    37.312     0.785     1.861     0.290     9.537    13.411    70.121     8.589     0.003     0.001     4.581     7.377     0.050     0.000 .00000E+00 0.000E+00 0.000E+00 0.000E+00 0.000E+00 0.000E+00
BIGSUB  15        0    8.11183E+04    90.130     0.000   122.514    68.572    31.258     1.839     0.990     0.979    12.700    10.338    41.729     5.111     0.002     0.000     2.824    10.702     0.030     0.000 .00000E+00 0.000E+00 0.000E+00 0.000E+00 0.000E+00 0.000E+00
BIGSUB  16        0    8.14036E+03    90.418     0.000   123.102    71.745    39.481     0.358     0.527     0.000     9.431     3.874    20.489     2.510     0.001     0.000     1.330     8.904     0.024     0.000 .00000E+00 0.000E+00 0.000E+00 0.000E+00 0.000E+00 0.000E+00
BIGSUB  17        0    8.46105E+02    98.133     0.000   122.935    68.740    39.094     4.887     0.455     1.847    14.606     2.076     1.769     0.217     0.000     0.000     0.290    12.249     0.015     0.001 .00000E+00 0.000E+00 0.000E+00 0.000E+00 0.000E+00 0.000E+00
BIGSUB  18        0    8.21983E+03    84.145     0.000   115.878    58.374    25.421    12.096     1.453     6.398    15.849    11.754    34.848     4.268     0.002     0.001     2.697     7.812     0.029     0.002 .00000E+00 0.000E+00 0.000E+00 0.000E+00 0.000E+00 0.000E+00
BIGSUB  19        0    8.43761E+03    95.928     0.000   120.265    67.715    41.126     4.657     1.945     2.033    11.738    10.769    46.674     5.717     0.007     0.001     3.207     7.698     0.037     0.001 .00000E+00 0.000E+00 0.000E+00 0.000E+00 0.000E+00 0.000E+00
BIGSUB  20        0    8.34348E+03    97.360     0.000   121.789    70.816    43.238     1.883     1.139     0.874    11.027     5.458    25.229     3.090     0.001     0.001     1.743     8.988     0.028     0.000 .00000E+00 0.000E+00 0.000E+00 0.000E+00 0.000E+00 0.000E+00
BIGSUB  21        0    8.61613E+03    92.703     0.000   116.796    70.652    50.077     0.241     0.849     0.113     7.997     3.581    19.627     2.404     0.001     0.000     1.281     7.032     0.021     0.000 .00000E+00 0.000E+00 0.000E+00 0.000E+00 0.000E+00 0.000E+00
BIGSUB  22        0    8.67181E+03    72.920     0.000   121.480    66.645    85.788     6.695    10.843     3.583    19.525    13.400    20.271     2.483     0.001     0.003     1.377     4.949     0.007     0.000 .00000E+00 0.000E+00 0.000E+00 0.000E+00 0.000E+00 0.000E+00
BIGSUB  23        0    8.35635E+03    89.701     0.000   113.205    61.361    38.456    10.267     1.000     4.785    15.456     3.401     7.938     0.972     0.001     0.000     0.743     9.529     0.012     0.001 .00000E+00 0.000E+00 0.000E+00 0.000E+00 0.000E+00 0.000E+00
BIGSUB   1        0    9.12166E+03    22.479     0.000   106.701    31.907     7.043     0.000     0.000     0.000     1.409     0.000     0.000     0.000     0.000     0.000     0.000     1.409     0.001     0.000 .00000E+00 0.000E+00 0.000E+00 0.000E+00 0.000E+00 0.000E+00
BIGSUB   2        0    9.37816E+03    51.186     0.000    71.322    37.877    57.284     2.350     0.126     2.637     3.454     0.098     0.329     0.040     0.000     0.000     0.026     0.590     0.003     0.000 .00000E+00 0.000E+00 0.000E+00 0.000E+00 0.000E+00 0.000E+00
BIGSUB   3        0    9.14857E+04    67.047     0.000    78.515    46.893    63.398    10.336     3.401     6.117    10.978     1.152     3.398     0.416     0.000     0.001     0.321     1.245     0.003     0.001 .00000E+00 0.000E+00 0.000E+00 0.000E+00 0.000E+00 0.000E+00
BIGSUB   4        0    9.15464E+03    22.718     0.000   103.161    23.166     3.725     0.000     0.000     0.000     1.725     0.000     0.000     0.000     0.000     0.000     0.000     1.725     0.002     0.000 .00000E+00 0.000E+00 0.000E+00 0.000E+00 0.000E+00 0.000E+00
BIGSUB   5        0    9.26428E+03    80.350     0.000    73.687    46.196    77.135    10.501     6.222     7.231    31.404    34.051    97.264    11.914     0.001     0.002     6.472    17.742     0.171     0.009 .00000E+00 0.000E+00 0.000E+00 0.000E+00 0.000E+00 0.000E+00
BIGSUB   6        0    9.58563E+02    22.733     0.000    76.033    23.331     9.175     0.000     0.000     0.000     1.916     0.000     0.000     0.000     0.000     0.000     0.000     1.916     0.028     0.000 .00000E+00 0.000E+00 0.000E+00 0.000E+00 0.000E+00 0.000E+00
BIGSUB   7        0    9.30909E+03    50.172     0.000    85.546    44.978    41.609     0.188     0.286     3.451    11.817     1.656     0.545     0.067     0.000     0.000     0.040     7.920     0.004     0.002 .00000E+00 0.000E+00 0.000E+00 0.000E+00 0.000E+00 0.000E+00
BIGSUB   8        0    9.41455E+03    80.543     0.000    73.505    45.035    75.768    13.591     6.459    11.372    33.386    40.476   123.289    15.101     0.001     0.002     8.325    15.217     0.129     0.008 .00000E+00 0.000E+00 0.000E+00 0.000E+00 0.000E+00 0.000E+00
BIGSUB   9        0    9.71882E+03    80.030     0.000    74.192    45.882    86.360    21.179    10.759    14.000    30.439    26.817   120.056    14.705     0.002     0.004     8.144     5.237     0.021     0.011 .00000E+00 0.000E+00 0.000E+00 0.000E+00 0.000E+00 0.000E+00
BIGSUB  10        0    9.10392E+04    75.925     0.000    71.334    43.550    85.682    20.837    11.649    13.047    30.820    29.181   127.879    15.664     0.002     0.004     8.677     5.689     0.020     0.001 .00000E+00 0.000E+00 0.000E+00 0.000E+00 0.000E+00 0.000E+00
BIGSUB  11        0    9.41096E+03    80.543     0.000    74.310    45.638    81.107    19.495     8.369    15.330    33.007    33.269   145.075    17.770     0.001     0.003     9.756     8.855     0.049     0.014 .00000E+00 0.000E+00 0.000E+00 0.000E+00 0.000E+00 0.000E+00
BIGSUB  12        0    9.16915E+03    66.451     0.000    94.275    57.429    32.225     3.595     0.630     3.645    11.887     3.184    13.008     1.593     0.001     0.000     0.874     7.504     0.017     0.001 .00000E+00 0.000E+00 0.000E+00 0.000E+00 0.000E+00 0.000E+00
BIGSUB  13        0    9.33387E+03    62.833     0.000    73.928    41.135    45.259    10.069     1.012     9.813    18.171     3.419    13.482     1.651     0.001     0.000     0.979     7.051     0.042     0.001 .00000E+00 0.000E+00 0.000E+00 0.000E+00 0.000E+00 0.000E+00
BIGSUB  14        0    9.78238E+02    66.451     0.000    93.454    58.845    38.056     0.624     1.301     0.408     9.257     5.673    27.475     3.365     0.002     0.001     1.790     7.534     0.029     0.000 .00000E+00 0.000E+00 0.000E+00 0.000E+00 0.000E+00 0.000E+00
BIGSUB  15        0    9.11183E+04    66.239     0.000    92.464    57.349    30.864     1.346     0.642     1.352    11.354     4.141    15.505     1.899     0.001     0.000     1.025     9.320     0.017     0.000 .00000E+00 0.000E+00 0.000E+00 0.000E+00 0.000E+00 0.000E+00
BIGSUB  16        0    9.14036E+03    66.451     0.000    92.921    60.070    39.550     0.280     0.365     0.000     7.997     1.650     7.885     0.966     0.000     0.000     0.513     7.629     0.011     0.000 .00000E+00 0.000E+00 0.000E+00 0.000E+00 0.000E+00 0.000E+00
BIGSUB  17        0    9.46105E+02    62.027     0.000    91.032    56.146    34.854     3.575     0.074     2.695    11.786     0.219     0.594     0.073     0.000     0.000     0.047     8.929     0.009     0.000 .00000E+00 0.000E+00 0.000E+00 0.000E+00 0.000E+00 0.000E+00
BIGSUB  18        0    9.21983E+03    61.840     0.000    87.939    47.930    25.931     8.729     0.754     8.792    17.671     3.601    13.045     1.598     0.001     0.000     0.909     7.863     0.016     0.001 .00000E+00 0.000E+00 0.000E+00 0.000E+00 0.000E+00 0.000E+00
BIGSUB  19        0    9.43761E+03    60.634     0.000    89.159    54.335    39.343     2.834     0.650     2.908    11.568     2.592    11.043     1.353     0.001     0.000     0.727     7.919     0.029     0.000 .00000E+00 0.000E+00 0.000E+00 0.000E+00 0.000E+00 0.000E+00
BIGSUB  20        0    9.34348E+03    61.539     0.000    90.286    57.270    40.536     1.090     0.375     1.250     9.543     1.366     6.513     0.798     0.001     0.000     0.429     7.882     0.017     0.000 .00000E+00 0.000E+00 0.000E+00 0.000E+00 0.000E+00 0.000E+00
BIGSUB  21        0    9.61613E+03    58.595     0.000    86.660    57.543    47.537     0.139     0.269     0.161     6.416     1.028     4.883     0.598     0.000     0.000     0.318     5.982     0.013     0.000 .00000E+00 0.000E+00 0.000E+00 0.000E+00 0.000E+00 0.000E+00
BIGSUB  22        0    9.67181E+03    68.032     0.000    88.846    56.567    88.554     2.914     4.364     3.114    11.908     4.798     6.056     0.742     0.001     0.001     0.410     4.240     0.005     0.000 .00000E+00 0.000E+00 0.000E+00 0.000E+00 0.000E+00 0.000E+00
BIGSUB  23        0    9.35635E+03    56.698     0.000    84.146    50.126    35.012     5.778     0.212     6.799    14.072     0.472     2.272     0.278     0.000     0.000     0.158     6.860     0.008     0.001 .00000E+00 0.000E+00 0.000E+00 0.000E+00 0.000E+00 0.000E+00
BIGSUB   1        0   10.12166E+03    15.664     0.000    57.487    18.696     8.181     0.000     0.000     0.000     1.196     0.000     0.000     0.000     0.000     0.000     0.000     1.196     0.001     0.000 .00000E+00 0.000E+00 0.000E+00 0.000E+00 0.000E+00 0.000E+00
BIGSUB   2        0   10.37816E+03    35.616     1.600    40.351    21.978    64.159     4.175     0.501     3.068     4.414     1.278     2.141     0.262     0.000     0.000     0.217     0.724     0.004     0.000 .00000E+00 0.000E+00 0.000E+00 0.000E+00 0.000E+00 0.000E+00
BIGSUB   3        0   10.14857E+04    17.529     6.212    49.045    24.998    51.070     5.902     0.381     5.750     7.294     0.244     0.559     0.068     0.000     0.000     0.048     0.877     0.003     0.000 .00000E+00 0.000E+00 0.000E+00 0.000E+00 0.000E+00 0.000E+00
BIGSUB   4        0   10.15464E+03    15.830     0.000    54.689    15.920     3.371     0.000     0.000     0.000     1.174     0.000     0.000     0.000     0.000     0.000     0.000     1.174     0.001     0.000 .00000E+00 0.000E+00 0.000E+00 0.000E+00 0.000E+00 0.000E+00
BIGSUB   5        0   10.26428E+03    38.072    12.300    37.013    24.422    74.761     5.700     3.776     8.464    21.319    26.989    58.326     7.144     0.003     0.001     3.873     8.779     0.071     0.007 .00000E+00 0.000E+00 0.000E+00 0.000E+00 0.000E+00 0.000E+00
BIGSUB   6        0   10.58563E+02    15.841     1.300    38.963    12.538     8.947     0.000     0.000     0.000     1.084     0.000     0.000     0.000     0.000     0.000     0.000     1.084     0.008     0.000 .00000E+00 0.000E+00 0.000E+00 0.000E+00 0.000E+00 0.000E+00
BIGSUB   7        0   10.30909E+03    40.873     0.000    51.889    27.690    43.253     1.503     0.198     1.466     9.893     0.748     0.285     0.035     0.000     0.000     0.021     8.080     0.011     0.001 .00000E+00 0.000E+00 0.000E+00 0.000E+00 0.000E+00 0.000E+00
BIGSUB   8        0   10.41455E+03    38.163    12.300    36.927    23.760    73.247     7.199     3.989    11.911    24.452    31.920    71.918     8.809     0.003     0.001     4.821     8.105     0.062     0.006 .00000E+00 0.000E+00 0.000E+00 0.000E+00 0.000E+00 0.000E+00
BIGSUB   9        0   10.71882E+03    37.920    12.300    37.201    23.481    82.993    10.250     5.971    16.109    26.149    17.157    59.828     7.328     0.004     0.002     4.028     3.461     0.016     0.007 .00000E+00 0.000E+00 0.000E+00 0.000E+00 0.000E+00 0.000E+00
BIGSUB  10        0   10.10392E+04    35.975    12.300    35.734    22.158    82.477     9.825     6.452    14.571    25.392    18.415    62.561     7.663     0.004     0.002     4.214     3.777     0.014     0.001 .00000E+00 0.000E+00 0.000E+00 0.000E+00 0.000E+00 0.000E+00
BIGSUB  11        0   10.41096E+03    38.163    12.300    37.352    23.654    77.692     9.973     4.951    15.808    26.775    22.935    75.615     9.262     0.004     0.002     5.059     5.408     0.028     0.009 .00000E+00 0.000E+00 0.000E+00 0.000E+00 0.000E+00 0.000E+00
BIGSUB  12        0   10.16915E+03    25.922     1.100    49.899    29.378    26.616     1.009     0.004     3.536     7.935     0.012     0.053     0.007     0.000     0.000     0.003     4.264     0.007     0.000 .00000E+00 0.000E+00 0.000E+00 0.000E+00 0.000E+00 0.000E+00
BIGSUB  13        0   10.33387E+03    24.511     5.900    35.371    20.573    43.625     3.257     0.649     9.681    15.042     3.997    17.387     2.130     0.002     0.000     1.196     4.351     0.021     0.000 .00000E+00 0.000E+00 0.000E+00 0.000E+00 0.000E+00 0.000E+00
BIGSUB  14        0   10.78238E+02    25.922     1.100    49.477    29.944    32.388     0.170     0.009     0.403     4.897     0.024     0.117     0.014     0.000     0.000     0.008     4.465     0.013     0.000 .00000E+00 0.000E+00 0.000E+00 0.000E+00 0.000E+00 0.000E+00
BIGSUB  15        0   10.11183E+04    25.839     1.100    48.965    28.906    25.112     0.375     0.004     1.314     6.151     0.017     0.063     0.008     0.000     0.000     0.004     4.784     0.007     0.000 .00000E+00 0.000E+00 0.000E+00 0.000E+00 0.000E+00 0.000E+00
BIGSUB  16        0   10.14036E+03    25.922     1.100    49.328    30.167    33.546     0.092     0.002     0.011     3.817     0.007     0.032     0.004     0.000     0.000     0.002     3.798     0.005     0.000 .00000E+00 0.000E+00 0.000E+00 0.000E+00 0.000E+00 0.000E+00
BIGSUB  17        0   10.46105E+02    20.779     2.300    49.584    26.504    27.779     0.418     0.000     2.463     5.600     0.000     0.002     0.000     0.000     0.000     0.000     3.025     0.002     0.000 .00000E+00 0.000E+00 0.000E+00 0.000E+00 0.000E+00 0.000E+00
BIGSUB  18        0   10.21983E+03    24.123     1.100    46.522    24.992    21.278     2.472     0.004     8.518    13.435     0.013     0.053     0.007     0.000     0.000     0.003     4.592     0.007     0.000 .00000E+00 0.000E+00 0.000E+00 0.000E+00 0.000E+00 0.000E+00
BIGSUB  19        0   10.43761E+03    20.312     2.300    48.495    26.111    32.437     0.461     0.010     2.585     6.212     0.011     0.050     0.006     0.000     0.000     0.003     3.509     0.007     0.000 .00000E+00 0.000E+00 0.000E+00 0.000E+00 0.000E+00 0.000E+00
BIGSUB  20        0   10.34348E+03    20.615     2.300    49.054    26.736    33.286     0.199     0.002     1.109     4.433     0.005     0.026     0.003     0.000     0.000     0.002     3.278     0.005     0.000 .00000E+00 0.000E+00 0.000E+00 0.000E+00 0.000E+00 0.000E+00
BIGSUB  21        0   10.61613E+03    19.629     2.300    47.227    27.176    39.583     0.025     0.002     0.142     2.619     0.004     0.020     0.002     0.000     0.000     0.001     2.470     0.005     0.000 .00000E+00 0.000E+00 0.000E+00 0.000E+00 0.000E+00 0.000E+00
BIGSUB  22        0   10.67181E+03    44.671     0.800    47.167    30.354    87.583     7.517     0.725     2.951     7.846     0.627     0.790     0.097     0.000     0.000     0.052     3.956     0.009     0.000 .00000E+00 0.000E+00 0.000E+00 0.000E+00 0.000E+00 0.000E+00
BIGSUB  23        0   10.35635E+03    18.993     2.300    45.799    23.722    28.341     1.079     0.001     5.999     8.708     0.001     0.008     0.001     0.000     0.000     0.001     2.471     0.002     0.000 .00000E+00 0.000E+00 0.000E+00 0.000E+00 0.000E+00 0.000E+00
BIGSUB   1        0   11.12166E+03     0.814     0.600    43.464     9.055     4.543     0.000     0.000     0.000     0.065     0.000     0.000     0.000     0.000     0.000     0.000     0.065     0.000     0.000 .00000E+00 0.000E+00 0.000E+00 0.000E+00 0.000E+00 0.000E+00
BIGSUB   2        0   11.37816E+03     0.000     2.051    30.496     8.722    58.524     0.000     0.102     1.963     2.441     0.019     0.261     0.032     0.001     0.000     0.018     0.254     0.002     0.000 .00000E+00 0.000E+00 0.000E+00 0.000E+00 0.000E+00 0.000E+00
BIGSUB   3        0   11.14857E+04     0.198     0.000    30.210     8.186    44.295     0.000     0.000     3.166     3.684     0.000     0.000     0.000     0.000     0.000     0.000     0.235     0.001     0.000 .00000E+00 0.000E+00 0.000E+00 0.000E+00 0.000E+00 0.000E+00
BIGSUB   4        0   11.15464E+03     0.822     0.600    41.171     3.966     1.087     0.000     0.000     0.000     0.105     0.000     0.000     0.000     0.000     0.000     0.000     0.104     0.000     0.000 .00000E+00 0.000E+00 0.000E+00 0.000E+00 0.000E+00 0.000E+00
BIGSUB   5        0   11.26428E+03     0.513     0.177    33.443     9.582    66.152     0.000     0.000     5.762     6.831     0.000     0.000     0.000     0.000     0.000     0.000     0.773     0.005     0.002 .00000E+00 0.000E+00 0.000E+00 0.000E+00 0.000E+00 0.000E+00
BIGSUB   6        0   11.58563E+02     0.823     2.500    22.645     4.746     6.833     0.000     0.000     0.000     0.009     0.000     0.000     0.000     0.000     0.000     0.000     0.009     0.000     0.000 .00000E+00 0.000E+00 0.000E+00 0.000E+00 0.000E+00 0.000E+00
BIGSUB   7        0   11.30909E+03     0.307     2.700    36.628    13.110    33.664     0.000     0.064     0.588     1.083     0.091     0.039     0.005     0.001     0.000     0.003     0.308     0.002     0.000 .00000E+00 0.000E+00 0.000E+00 0.000E+00 0.000E+00 0.000E+00
BIGSUB   8        0   11.41455E+03     0.514     0.177    33.453     8.935    65.129     0.000     0.000     7.764     9.148     0.000     0.000     0.000     0.000     0.000     0.000     0.957     0.005     0.002 .00000E+00 0.000E+00 0.000E+00 0.000E+00 0.000E+00 0.000E+00
BIGSUB   9        0   11.71882E+03     0.511     0.177    33.538     8.936    75.191     0.000     0.003    11.291    12.790     0.000     0.029     0.004     0.000     0.000     0.002     0.904     0.005     0.002 .00000E+00 0.000E+00 0.000E+00 0.000E+00 0.000E+00 0.000E+00
BIGSUB  10        0   11.10392E+04     0.485     0.177    32.180     8.553    74.888     0.000     0.003    10.684    12.251     0.000     0.026     0.003     0.000     0.000     0.002     0.991     0.004     0.001 .00000E+00 0.000E+00 0.000E+00 0.000E+00 0.000E+00 0.000E+00
BIGSUB  11        0   11.41096E+03     0.514     0.177    33.815     8.945    69.875     0.000     0.000    10.618    12.249     0.000     0.000     0.000     0.000     0.000     0.000     1.047     0.005     0.003 .00000E+00 0.000E+00 0.000E+00 0.000E+00 0.000E+00 0.000E+00
BIGSUB  12        0   11.16915E+03     0.000     0.000    38.618    11.342    16.735     0.000     0.000     1.382     2.315     0.000     0.000     0.000     0.000     0.000     0.000     0.814     0.002     0.000 .00000E+00 0.000E+00 0.000E+00 0.000E+00 0.000E+00 0.000E+00
BIGSUB  13        0   11.33387E+03     0.000     0.900    29.763     7.184    38.476     0.000     0.002     4.946     6.185     0.005     0.022     0.003     0.000     0.000     0.001     0.908     0.005     0.000 .00000E+00 0.000E+00 0.000E+00 0.000E+00 0.000E+00 0.000E+00
BIGSUB  14        0   11.78238E+02     0.000     0.000    38.337    11.492    21.980     0.000     0.000     0.189     1.161     0.000     0.000     0.000     0.000     0.000     0.000     0.954     0.003     0.000 .00000E+00 0.000E+00 0.000E+00 0.000E+00 0.000E+00 0.000E+00
BIGSUB  15        0   11.11183E+04     0.000     0.000    37.934    10.863    15.116     0.000     0.000     0.512     1.173     0.000     0.000     0.000     0.000     0.000     0.000     0.617     0.002     0.000 .00000E+00 0.000E+00 0.000E+00 0.000E+00 0.000E+00 0.000E+00
BIGSUB  16        0   11.14036E+03     0.000     0.000    38.387    12.738    21.916     0.000     0.000     0.069     0.620     0.000     0.000     0.000     0.000     0.000     0.000     0.545     0.001     0.000 .00000E+00 0.000E+00 0.000E+00 0.000E+00 0.000E+00 0.000E+00
BIGSUB  17        0   11.46105E+02     0.000     0.000    38.536    10.952    18.150     0.000     0.000     0.845     1.228     0.000     0.000     0.000     0.000     0.000     0.000     0.284     0.000     0.000 .00000E+00 0.000E+00 0.000E+00 0.000E+00 0.000E+00 0.000E+00
BIGSUB  18        0   11.21983E+03     0.000     0.000    36.004     8.088    14.004     0.000     0.000     3.432     4.658     0.000     0.000     0.000     0.000     0.000     0.000     0.937     0.002     0.000 .00000E+00 0.000E+00 0.000E+00 0.000E+00 0.000E+00 0.000E+00
BIGSUB  19        0   11.43761E+03     0.000     0.000    37.625    10.894    22.475     0.000     0.000     0.859     1.607     0.000     0.000     0.000     0.000     0.000     0.000     0.654     0.001     0.000 .00000E+00 0.000E+00 0.000E+00 0.000E+00 0.000E+00 0.000E+00
BIGSUB  20        0   11.34348E+03     0.000     0.000    38.004    11.979    22.177     0.000     0.000     0.360     0.992     0.000     0.000     0.000     0.000     0.000     0.000     0.594     0.001     0.000 .00000E+00 0.000E+00 0.000E+00 0.000E+00 0.000E+00 0.000E+00
BIGSUB  21        0   11.61613E+03     0.000     0.000    36.762    13.089    27.280     0.000     0.000     0.047     0.535     0.000     0.000     0.000     0.000     0.000     0.000     0.483     0.001     0.000 .00000E+00 0.000E+00 0.000E+00 0.000E+00 0.000E+00 0.000E+00
BIGSUB  22        0   11.67181E+03     1.368     6.800    36.938    17.259    76.005     0.000     1.951     2.639     5.538     0.272     1.282     0.157     0.006     0.001     0.083     0.727     0.002     0.000 .00000E+00 0.000E+00 0.000E+00 0.000E+00 0.000E+00 0.000E+00
BIGSUB  23        0   11.35635E+03     0.000     0.000    35.615     9.877    18.975     0.000     0.000     2.074     2.616     0.000     0.000     0.000     0.000     0.000     0.000     0.335     0.001     0.000 .00000E+00 0.000E+00 0.000E+00 0.000E+00 0.000E+00 0.000E+00
BIGSUB   1        0   12.12166E+03     0.509     0.000    27.401     4.433     3.102     0.000     0.000     0.000     0.000     0.000     0.000     0.000     0.000     0.000     0.000     0.000     0.000     0.000 .00000E+00 0.000E+00 0.000E+00 0.000E+00 0.000E+00 0.000E+00
BIGSUB   2        0   12.37816E+03     0.000     0.000    23.246     4.134    55.033     0.000     0.000     0.472     0.710     0.000     0.000     0.000     0.000     0.000     0.000     0.131     0.002     0.000 .00000E+00 0.000E+00 0.000E+00 0.000E+00 0.000E+00 0.000E+00
BIGSUB   3        0   12.14857E+04     0.990     0.000    11.467     2.814    42.482     0.000     0.000     0.697     1.022     0.000     0.000     0.000     0.000     0.000     0.000     0.078     0.000     0.000 .00000E+00 0.000E+00 0.000E+00 0.000E+00 0.000E+00 0.000E+00
BIGSUB   4        0   12.15464E+03     0.514     0.000    25.969     1.070     0.552     0.000     0.000     0.000     0.001     0.000     0.000     0.000     0.000     0.000     0.000     0.001     0.000     0.000 .00000E+00 0.000E+00 0.000E+00 0.000E+00 0.000E+00 0.000E+00
BIGSUB   5        0   12.26428E+03     0.205     0.000    14.885     2.749    63.839     0.000     0.000     2.041     2.460     0.000     0.000     0.000     0.000     0.000     0.000     0.163     0.001     0.000 .00000E+00 0.000E+00 0.000E+00 0.000E+00 0.000E+00 0.000E+00
BIGSUB   6        0   12.58563E+02     0.514     0.000    10.400     0.447     6.398     0.000     0.000     0.000     0.000     0.000     0.000     0.000     0.000     0.000     0.000     0.000     0.000     0.000 .00000E+00 0.000E+00 0.000E+00 0.000E+00 0.000E+00 0.000E+00
BIGSUB   7        0   12.30909E+03     0.000     0.000    25.480     4.549    29.690     0.000     0.000     0.148     0.296     0.000     0.000     0.000     0.000     0.000     0.000     0.048     0.000     0.000 .00000E+00 0.000E+00 0.000E+00 0.000E+00 0.000E+00 0.000E+00
BIGSUB   8        0   12.41455E+03     0.206     0.000    14.891     2.457    62.999     0.000     0.000     2.758     3.325     0.000     0.000     0.000     0.000     0.000     0.000     0.201     0.001     0.000 .00000E+00 0.000E+00 0.000E+00 0.000E+00 0.000E+00 0.000E+00
BIGSUB   9        0   12.71882E+03     0.204     0.000    14.798     2.650    73.098     0.000     0.000     4.745     5.558     0.000     0.000     0.000     0.000     0.000     0.000     0.300     0.002     0.000 .00000E+00 0.000E+00 0.000E+00 0.000E+00 0.000E+00 0.000E+00
BIGSUB  10        0   12.10392E+04     0.194     0.000    14.128     2.618    72.875     0.000     0.000     4.570     5.379     0.000     0.000     0.000     0.000     0.000     0.000     0.312     0.001     0.000 .00000E+00 0.000E+00 0.000E+00 0.000E+00 0.000E+00 0.000E+00
BIGSUB  11        0   12.41096E+03     0.206     0.000    15.097     2.609    67.798     0.000     0.000     4.064     4.828     0.000     0.000     0.000     0.000     0.000     0.000     0.260     0.001     0.000 .00000E+00 0.000E+00 0.000E+00 0.000E+00 0.000E+00 0.000E+00
BIGSUB  12        0   12.16915E+03     0.000     0.000    26.260     3.895    13.778     0.000     0.000     0.339     0.599     0.000     0.000     0.000     0.000     0.000     0.000     0.159     0.000     0.000 .00000E+00 0.000E+00 0.000E+00 0.000E+00 0.000E+00 0.000E+00
BIGSUB  13        0   12.33387E+03     0.000     0.000    22.574     3.357    35.794     0.000     0.000     1.036     1.517     0.000     0.000     0.000     0.000     0.000     0.000     0.204     0.001     0.000 .00000E+00 0.000E+00 0.000E+00 0.000E+00 0.000E+00 0.000E+00
BIGSUB  14        0   12.78238E+02     0.000     0.000    26.121     3.892    18.752     0.000     0.000     0.055     0.259     0.000     0.000     0.000     0.000     0.000     0.000     0.188     0.001     0.000 .00000E+00 0.000E+00 0.000E+00 0.000E+00 0.000E+00 0.000E+00
BIGSUB  15        0   12.11183E+04     0.000     0.000    25.871     3.276    12.358     0.000     0.000     0.126     0.268     0.000     0.000     0.000     0.000     0.000     0.000     0.104     0.000     0.000 .00000E+00 0.000E+00 0.000E+00 0.000E+00 0.000E+00 0.000E+00
BIGSUB  16        0   12.14036E+03     0.000     0.000    26.224     4.286    18.309     0.000     0.000     0.026     0.142     0.000     0.000     0.000     0.000     0.000     0.000     0.111     0.000     0.000 .00000E+00 0.000E+00 0.000E+00 0.000E+00 0.000E+00 0.000E+00
BIGSUB  17        0   12.46105E+02     0.000     0.000    26.283     4.172    14.814     0.000     0.000     0.211     0.347     0.000     0.000     0.000     0.000     0.000     0.000     0.053     0.000     0.000 .00000E+00 0.000E+00 0.000E+00 0.000E+00 0.000E+00 0.000E+00
BIGSUB  18        0   12.21983E+03     0.000     0.000    24.477     2.939    11.747     0.000     0.000     0.832     1.253     0.000     0.000     0.000     0.000     0.000     0.000     0.176     0.000     0.000 .00000E+00 0.000E+00 0.000E+00 0.000E+00 0.000E+00 0.000E+00
BIGSUB  19        0   12.43761E+03     0.000     0.000    25.638     3.945    19.175     0.000     0.000     0.222     0.435     0.000     0.000     0.000     0.000     0.000     0.000     0.134     0.000     0.000 .00000E+00 0.000E+00 0.000E+00 0.000E+00 0.000E+00 0.000E+00
BIGSUB  20        0   12.34348E+03     0.000     0.000    25.892     4.177    18.543     0.000     0.000     0.094     0.282     0.000     0.000     0.000     0.000     0.000     0.000     0.156     0.000     0.000 .00000E+00 0.000E+00 0.000E+00 0.000E+00 0.000E+00 0.000E+00
BIGSUB  21        0   12.61613E+03     0.000     0.000    25.059     5.028    22.964     0.000     0.000     0.012     0.179     0.000     0.000     0.000     0.000     0.000     0.000     0.163     0.001     0.000 .00000E+00 0.000E+00 0.000E+00 0.000E+00 0.000E+00 0.000E+00
BIGSUB  22        0   12.67181E+03     0.684     0.000    23.128     6.435    70.418     0.000     0.000     1.718     2.196     0.000     0.000     0.000     0.000     0.000     0.000     0.278     0.001     0.000 .00000E+00 0.000E+00 0.000E+00 0.000E+00 0.000E+00 0.000E+00
BIGSUB  23        0   12.35635E+03     0.000     0.000    24.259     3.706    15.838     0.000     0.000     0.518     0.800     0.000     0.000     0.000     0.000     0.000     0.000     0.109     0.000     0.000 .00000E+00 0.000E+00 0.000E+00 0.000E+00 0.000E+00 0.000E+00
BIGSUB   1        0 2007.12166E+03   143.213     6.700  1168.552   229.528     3.102     0.000     0.000     0.000     8.732     0.000     0.000     0.000     0.000     0.000     0.000     8.732     0.116     0.000 .00000E+00 0.000E+00 0.000E+00 0.000E+00 0.000E+00 0.000E+00
BIGSUB   2        0 2007.37816E+03   354.941    40.651   796.037   295.793    55.033    18.955     7.105    14.407    26.270     6.264    34.633     4.242     0.262     0.003     2.754     4.136     0.031     0.003 .00000E+00 0.000E+00 0.000E+00 0.000E+00 0.000E+00 0.000E+00
BIGSUB   3        0 2007.14857E+04   400.402    25.512   825.205   318.399    42.482    40.802    25.330    25.839    58.769    22.292    54.050     6.621     0.386     0.006     5.422     6.309     0.038     0.008 .00000E+00 0.000E+00 0.000E+00 0.000E+00 0.000E+00 0.000E+00
BIGSUB   4        0 2007.15464E+03   144.735     6.700  1138.509   151.444     0.552     0.000     0.000     0.000     9.681     0.000     0.000     0.000     0.000     0.000     0.000     9.680     0.370     0.000 .00000E+00 0.000E+00 0.000E+00 0.000E+00 0.000E+00 0.000E+00
BIGSUB   5        0 2007.26428E+03   546.034    38.677   754.462   337.989    63.839    39.938    22.676    28.986   146.740   122.050   395.708    48.470     0.854     0.008    26.405    93.858     1.218     0.023 .00000E+00 0.000E+00 0.000E+00 0.000E+00 0.000E+00 0.000E+00
BIGSUB   6        0 2007.58563E+02   144.833    18.200   815.539   131.974     6.398     0.000     0.009     0.000    10.180     0.011     0.013     0.002     0.003     0.000     0.002    10.171     0.527     0.000 .00000E+00 0.000E+00 0.000E+00 0.000E+00 0.000E+00 0.000E+00
BIGSUB   7        0 2007.30909E+03   490.374    21.300   898.735   357.324    29.690    20.547     5.263    12.093   106.223    40.673   113.405    13.891     0.278     0.002     7.625    88.131     0.892     0.013 .00000E+00 0.000E+00 0.000E+00 0.000E+00 0.000E+00 0.000E+00
BIGSUB   8        0 2007.41455E+03   547.343    38.677   753.592   330.758    62.999    60.184    22.303    46.861   149.814   136.334   426.641    52.259     0.604     0.008    29.302    78.744     1.015     0.024 .00000E+00 0.000E+00 0.000E+00 0.000E+00 0.000E+00 0.000E+00
BIGSUB   9        0 2007.71882E+03   543.858    38.677   756.887   341.019    73.098    82.633    35.916    64.254   128.836    91.667   424.505    51.997     0.579     0.015    29.216    26.082     0.238     0.038 .00000E+00 0.000E+00 0.000E+00 0.000E+00 0.000E+00 0.000E+00
BIGSUB  10        0 2007.10392E+04   515.959    38.677   724.853   324.987    72.875    81.389    38.567    62.904   132.401    99.453   450.777    55.215     0.554     0.015    31.056    28.361     0.231     0.012 .00000E+00 0.000E+00 0.000E+00 0.000E+00 0.000E+00 0.000E+00
BIGSUB  11        0 2007.41096E+03   547.343    38.677   759.791   339.279    67.798    82.099    26.592    64.141   137.202   104.332   449.351    55.041     0.354     0.011    30.818    43.882     0.515     0.042 .00000E+00 0.000E+00 0.000E+00 0.000E+00 0.000E+00 0.000E+00
[...]
BIGSUB  21        0    8.61613E+03    64.717     0.000   121.517    68.093    72.730     0.296     5.016     0.244    14.544     5.641    17.147     2.106     0.007     0.003     1.124     9.279     0.094     0.000 .00000E+00 0.000E+00 0.000E+00 0.000E+00 0.000E+00 0.000E+00
BIGSUB  22        0    8.67181E+03    60.506     0.000   130.486    64.345    67.941     1.928     3.813     1.423     9.263     4.698     7.949     0.976     0.004     0.001     0.522     3.970     0.022     0.000 .00000E+00 0.000E+00 0.000E+00 0.000E+00 0.000E+00 0.000E+00
BIGSUB  23        0    8.35635E+03    62.622     0.000   117.775    58.738    51.188     7.346     2.535    10.462    23.160     2.490     8.255     1.013     0.003     0.001     0.584     9.919     0.059     0.000 .00000E+00 0.000E+00 0.000E+00 0.000E+00 0.000E+00 0.000E+00
BIGSUB   1        0    9.12166E+03    63.876     0.000   117.871    48.792    36.133     0.000     0.000     0.000     9.302     0.000     0.000     0.000     0.000     0.000     0.000     9.302     0.001     0.000 .00000E+00 0.000E+00 0.000E+00 0.000E+00 0.000E+00 0.000E+00
BIGSUB   2        0    9.37816E+03    59.530     0.000    81.988    35.798    69.538     4.567     0.392     1.618     2.633     0.400     1.075     0.132     0.000     0.000     0.097     0.562     0.001     0.000 .00000E+00 0.000E+00 0.000E+00 0.000E+00 0.000E+00 0.000E+00
BIGSUB   3        0    9.14857E+04    47.636     0.000    85.930    33.317    56.056     3.603     3.399     5.455     9.796     3.361     5.712     0.700     0.000     0.001     0.543     0.665     0.001     0.000 .00000E+00 0.000E+00 0.000E+00 0.000E+00 0.000E+00 0.000E+00
BIGSUB   4        0    9.15464E+03    64.555     0.000   113.896    44.170    21.228     0.000     0.000     0.000     7.941     0.000     0.000     0.000     0.000     0.000     0.000     7.941     0.001     0.000 .00000E+00 0.000E+00 0.000E+00 0.000E+00 0.000E+00 0.000E+00
BIGSUB   5        0    9.26428E+03    94.717     0.000    73.927    48.953    84.706    13.578     5.291     9.679    33.340    16.592    10.163     1.245     0.001     0.000     0.700    18.061     0.098     0.004 .00000E+00 0.000E+00 0.000E+00 0.000E+00 0.000E+00 0.000E+00
BIGSUB   6        0    9.58563E+02    64.599     0.000    80.701    34.982    51.759     2.106     0.013     0.000    10.354     0.018     0.019     0.002     0.000     0.000     0.003    10.341     0.152     0.000 .00000E+00 0.000E+00 0.000E+00 0.000E+00 0.000E+00 0.000E+00
BIGSUB   7        0    9.30909E+03    97.380     0.000    88.103    45.757    58.812    11.202     1.856     0.358    22.470    10.063     4.416     0.541     0.001     0.000     0.322    20.219     0.098     0.000 .00000E+00 0.000E+00 0.000E+00 0.000E+00 0.000E+00 0.000E+00
BIGSUB   8        0    9.41455E+03    94.944     0.000    73.746    48.169    83.415    17.573     5.237    13.350    33.994    18.298    10.526     1.289     0.001     0.000     0.747    14.974     0.076     0.003 .00000E+00 0.000E+00 0.000E+00 0.000E+00 0.000E+00 0.000E+00
BIGSUB   9        0    9.71882E+03    94.340     0.000    74.428    49.071    92.800    23.387     8.008    19.163    32.342    12.123    24.400     2.988     0.001     0.001     1.664     4.581     0.012     0.002 .00000E+00 0.000E+00 0.000E+00 0.000E+00 0.000E+00 0.000E+00
BIGSUB  10        0    9.10392E+04    89.500     0.000    71.565    46.507    92.900    22.147     8.557    18.421    32.550    12.866    24.662     3.020     0.001     0.001     1.686     4.998     0.012     0.000 .00000E+00 0.000E+00 0.000E+00 0.000E+00 0.000E+00 0.000E+00
BIGSUB  11        0    9.41096E+03    94.944     0.000    74.566    48.896    86.130    23.561     6.186    18.380    33.038    14.062    17.867     2.188     0.001     0.001     1.240     7.881     0.023     0.004 .00000E+00 0.000E+00 0.000E+00 0.000E+00 0.000E+00 0.000E+00
BIGSUB  12        0    9.16915E+03   112.534     0.000    88.272    57.008    70.486    15.151     5.620     6.856    24.205    16.005    20.127     2.470     0.002     0.002     1.560    11.484     0.060     0.000 .00000E+00 0.000E+00 0.000E+00 0.000E+00 0.000E+00 0.000E+00
BIGSUB  13        0    9.33387E+03   106.407     0.000    70.259    45.105    72.099    26.993    10.207    15.726    35.168    25.530    68.414     8.379     0.001     0.002     4.692     8.735     0.026     0.000 .00000E+00 0.000E+00 0.000E+00 0.000E+00 0.000E+00 0.000E+00
BIGSUB  14        0    9.78238E+02   112.534     0.000    87.543    58.560    84.237     6.443     8.134     2.241    21.059    21.191    32.299     3.962     0.003     0.002     2.188    10.594     0.071     0.001 .00000E+00 0.000E+00 0.000E+00 0.000E+00 0.000E+00 0.000E+00
BIGSUB  15        0    9.11183E+04   112.175     0.000    86.651    56.579    66.366    13.136     3.835     3.029    23.720    17.391    12.763     1.566     0.001     0.001     0.965    16.708     0.097     0.000 .00000E+00 0.000E+00 0.000E+00 0.000E+00 0.000E+00 0.000E+00
BIGSUB  16        0    9.14036E+03   112.534     0.000    87.105    59.292    85.783     7.940     3.865     2.200    20.115     6.678    17.383     2.135     0.002     0.002     1.150    13.946     0.084     0.002 .00000E+00 0.000E+00 0.000E+00 0.000E+00 0.000E+00 0.000E+00
BIGSUB  17        0    9.46105E+02   128.581     0.000    88.361    58.218    69.898    20.371     2.429     7.390    31.558     5.927     7.690     0.944     0.001     0.001     0.775    21.491     0.108     0.005 .00000E+00 0.000E+00 0.000E+00 0.000E+00 0.000E+00 0.000E+00
BIGSUB  18        0    9.21983E+03   104.726     0.000    82.322    49.358    54.950    23.830     5.926    14.849    32.144    20.887    14.789     1.815     0.002     0.001     1.470    10.923     0.051     0.000 .00000E+00 0.000E+00 0.000E+00 0.000E+00 0.000E+00 0.000E+00
BIGSUB  19        0    9.43761E+03   125.691     0.000    86.531    56.907    87.761    13.051     9.895     5.436    28.308    29.429    39.275     4.820     0.004     0.003     2.916    12.806     0.102     0.001 .00000E+00 0.000E+00 0.000E+00 0.000E+00 0.000E+00 0.000E+00
BIGSUB  20        0    9.34348E+03   127.568     0.000    87.622    59.985    97.134     4.665     9.914     1.941    26.886    15.849    45.807     5.626     0.004     0.004     3.181    14.972     0.086     0.000 .00000E+00 0.000E+00 0.000E+00 0.000E+00 0.000E+00 0.000E+00
BIGSUB  21        0    9.61613E+03   121.466     0.000    84.110    59.366   109.648     3.034    11.415     0.252    23.634    10.467    38.976     4.788     0.005     0.006     2.576    11.958     0.067     0.000 .00000E+00 0.000E+00 0.000E+00 0.000E+00 0.000E+00 0.000E+00
BIGSUB  22        0    9.67181E+03    97.356     0.000    87.135    57.812    94.136     4.491     4.594     1.958    12.974     3.444     7.108     0.872     0.001     0.001     0.485     6.352     0.044     0.000 .00000E+00 0.000E+00 0.000E+00 0.000E+00 0.000E+00 0.000E+00
BIGSUB  23        0    9.35635E+03   117.533     0.000    81.658    52.808    77.109    20.528     6.639    10.779    33.813     9.109    18.113     2.224     0.002     0.003     1.571    16.066     0.080     0.000 .00000E+00 0.000E+00 0.000E+00 0.000E+00 0.000E+00 0.000E+00
BIGSUB   1        0   10.12166E+03    27.565     0.000    73.503    37.189    29.233     0.000     0.000     0.000     3.579     0.000     0.000     0.000     0.000     0.000     0.000     3.579     0.000     0.000 .00000E+00 0.000E+00 0.000E+00 0.000E+00 0.000E+00 0.000E+00
BIGSUB   2        0   10.37816E+03    18.622    11.600    41.762    20.077    64.034     0.000     5.101     2.581     8.298     4.555    38.575     4.724     0.007     0.002     2.684     0.530     0.002     0.000 .00000E+00 0.000E+00 0.000E+00 0.000E+00 0.000E+00 0.000E+00
BIGSUB   3        0   10.14857E+04    11.191     5.300    54.491    23.967    45.016     0.149     0.053     3.894     4.791     0.012     0.046     0.006     0.000     0.000     0.005     0.559     0.001     0.000 .00000E+00 0.000E+00 0.000E+00 0.000E+00 0.000E+00 0.000E+00
BIGSUB   4        0   10.15464E+03    27.857     0.000    69.823    39.753     7.789     0.000     0.000     0.000     3.963     0.000     0.000     0.000     0.000     0.000     0.000     3.963     0.001     0.000 .00000E+00 0.000E+00 0.000E+00 0.000E+00 0.000E+00 0.000E+00
BIGSUB   5        0   10.26428E+03    17.753    10.800    40.576    21.252    75.748     3.327     1.832    10.372    17.570    14.215     7.303     0.894     0.001     0.000     0.507     4.968     0.026     0.003 .00000E+00 0.000E+00 0.000E+00 0.000E+00 0.000E+00 0.000E+00
BIGSUB   6        0   10.58563E+02    27.876    12.300    41.386    23.486    53.988     0.067     0.094     0.000     4.125     0.684     0.475     0.058     0.000     0.000     0.072     4.017     0.047     0.000 .00000E+00 0.000E+00 0.000E+00 0.000E+00 0.000E+00 0.000E+00
BIGSUB   7        0   10.30909E+03    28.305     4.700    61.643    33.038    50.792     0.076     0.190     2.168     9.031     0.612     0.142     0.017     0.000     0.000     0.010     6.568     0.029     0.001 .00000E+00 0.000E+00 0.000E+00 0.000E+00 0.000E+00 0.000E+00
BIGSUB   8        0   10.41455E+03    17.796    10.800    40.479    20.803    74.222     3.831     2.007    13.708    21.506    17.371     7.132     0.873     0.001     0.000     0.515     5.245     0.023     0.002 .00000E+00 0.000E+00 0.000E+00 0.000E+00 0.000E+00 0.000E+00
BIGSUB   9        0   10.71882E+03    17.682    10.800    40.781    21.055    79.427     7.739     2.863    20.362    26.958     8.559    11.051     1.353     0.002     0.000     0.772     2.984     0.009     0.002 .00000E+00 0.000E+00 0.000E+00 0.000E+00 0.000E+00 0.000E+00
BIGSUB  10        0   10.10392E+04    16.775    10.800    39.207    20.130    78.766     8.401     3.109    19.828    26.935     9.198    11.349     1.390     0.002     0.000     0.795     3.271     0.009     0.000 .00000E+00 0.000E+00 0.000E+00 0.000E+00 0.000E+00 0.000E+00
BIGSUB  11        0   10.41096E+03    17.796    10.800    41.004    21.020    74.678     6.136     2.467    19.221    26.867    11.861    10.325     1.265     0.002     0.000     0.730     4.436     0.013     0.003 .00000E+00 0.000E+00 0.000E+00 0.000E+00 0.000E+00 0.000E+00
BIGSUB  12        0   10.16915E+03     7.201     0.000    66.280    26.031    52.037     1.618     0.000     7.968    14.232     0.000     0.000     0.000     0.000     0.000     0.000     5.931     0.031     0.000 .00000E+00 0.000E+00 0.000E+00 0.000E+00 0.000E+00 0.000E+00
BIGSUB  13        0   10.33387E+03     6.809     2.600    41.661    16.301    58.951     4.662     0.310    16.449    22.846     1.387     3.598     0.441     0.002     0.000     0.236     5.434     0.020     0.000 .00000E+00 0.000E+00 0.000E+00 0.000E+00 0.000E+00 0.000E+00
BIGSUB  14        0   10.78238E+02     7.201     0.000    65.736    27.005    63.866     2.011     0.000     3.307    10.039     0.000     0.000     0.000     0.000     0.000     0.000     6.600     0.043     0.001 .00000E+00 0.000E+00 0.000E+00 0.000E+00 0.000E+00 0.000E+00
BIGSUB  15        0   10.11183E+04     7.178     0.000    65.035    25.963    48.097     0.477     0.000     4.096    10.358     0.000     0.000     0.000     0.000     0.000     0.000     6.032     0.038     0.001 .00000E+00 0.000E+00 0.000E+00 0.000E+00 0.000E+00 0.000E+00
BIGSUB  16        0   10.14036E+03     7.201     0.000    65.552    28.620    64.199     1.632     0.000     3.775     8.143     0.000     0.000     0.000     0.000     0.000     0.000     4.211     0.027     0.002 .00000E+00 0.000E+00 0.000E+00 0.000E+00 0.000E+00 0.000E+00
BIGSUB  17        0   10.46105E+02    13.578     2.700    65.548    29.434    54.183     0.654     0.016    10.406    15.013     0.019     0.056     0.007     0.000     0.000     0.004     4.226     0.020     0.006 .00000E+00 0.000E+00 0.000E+00 0.000E+00 0.000E+00 0.000E+00
BIGSUB  18        0   10.21983E+03     6.701     0.000    61.815    21.202    40.417     0.889     0.000    15.646    22.393     0.000     0.000     0.000     0.000     0.000     0.000     6.176     0.025     0.000 .00000E+00 0.000E+00 0.000E+00 0.000E+00 0.000E+00 0.000E+00
BIGSUB  19        0   10.43761E+03    13.273     2.700    64.117    28.178    70.662     2.698     0.015     6.541    13.716     0.013     0.012     0.001     0.000     0.000     0.001     6.911     0.047     0.001 .00000E+00 0.000E+00 0.000E+00 0.000E+00 0.000E+00 0.000E+00
BIGSUB  20        0   10.34348E+03    13.471     2.700    64.855    30.882    75.099     4.950     0.013     2.160     7.683     0.018     0.033     0.004     0.000     0.000     0.002     5.414     0.029     0.000 .00000E+00 0.000E+00 0.000E+00 0.000E+00 0.000E+00 0.000E+00
BIGSUB  21        0   10.61613E+03    12.827     2.700    62.467    31.131    83.880     7.892     0.006     0.281     4.279     0.006     0.007     0.001     0.000     0.000     0.000     3.943     0.023     0.000 .00000E+00 0.000E+00 0.000E+00 0.000E+00 0.000E+00 0.000E+00
BIGSUB  22        0   10.67181E+03    37.437     0.200    62.317    38.324    84.890     5.911     1.957     2.752     8.299     0.846     2.345     0.288     0.002     0.001     0.153     3.483     0.012     0.000 .00000E+00 0.000E+00 0.000E+00 0.000E+00 0.000E+00 0.000E+00
BIGSUB  23        0   10.35635E+03    12.411     2.700    60.603    26.833    58.751     3.765     0.005    12.032    15.336     0.003     0.006     0.001     0.000     0.000     0.000     2.859     0.011     0.000 .00000E+00 0.000E+00 0.000E+00 0.000E+00 0.000E+00 0.000E+00
BIGSUB   1        0   11.12166E+03     4.984     4.900    38.419    13.956    24.246     0.000     0.000     0.000     0.096     0.000     0.000     0.000     0.000     0.000     0.000     0.096     0.000     0.000 .00000E+00 0.000E+00 0.000E+00 0.000E+00 0.000E+00 0.000E+00
BIGSUB   2        0   11.37816E+03     1.119     0.200    26.551     6.941    58.304     0.000     0.117     1.550     1.927     0.000     1.063     0.130     0.000     0.000     0.069     0.178     0.001     0.000 .00000E+00 0.000E+00 0.000E+00 0.000E+00 0.000E+00 0.000E+00
BIGSUB   3        0   11.14857E+04     0.693     0.700    29.254     7.607    39.533     0.000     0.000     1.529     1.913     0.000     0.000     0.000     0.000     0.000     0.000     0.147     0.000     0.000 .00000E+00 0.000E+00 0.000E+00 0.000E+00 0.000E+00 0.000E+00
BIGSUB   4        0   11.15464E+03     5.037     4.900    35.791     7.690     5.736     0.000     0.000     0.000     0.320     0.000     0.000     0.000     0.000     0.000     0.000     0.320     0.001     0.000 .00000E+00 0.000E+00 0.000E+00 0.000E+00 0.000E+00 0.000E+00
BIGSUB   5        0   11.26428E+03     2.565     2.400    26.057     9.843    68.790     0.000     0.241     6.589     7.830     0.610     0.347     0.042     0.001     0.000     0.023     0.623     0.003     0.001 .00000E+00 0.000E+00 0.000E+00 0.000E+00 0.000E+00 0.000E+00
BIGSUB   6        0   11.58563E+02     5.040     0.000    21.157     7.359    46.834     0.000     0.000     0.000     0.085     0.000     0.000     0.000     0.000     0.000     0.000     0.066     0.000     0.000 .00000E+00 0.000E+00 0.000E+00 0.000E+00 0.000E+00 0.000E+00
BIGSUB   7        0   11.30909E+03     3.474     0.000    24.432     7.393    44.733     0.000     0.000     1.833     2.409     0.000     0.000     0.000     0.000     0.000     0.000     0.456     0.002     0.000 .00000E+00 0.000E+00 0.000E+00 0.000E+00 0.000E+00 0.000E+00
BIGSUB   8        0   11.41455E+03     2.572     2.400    26.025     9.349    67.617     0.000     0.253     8.669    10.203     0.690     0.371     0.045     0.001     0.000     0.025     0.775     0.003     0.001 .00000E+00 0.000E+00 0.000E+00 0.000E+00 0.000E+00 0.000E+00
BIGSUB   9        0   11.71882E+03     2.555     2.400    26.170     9.206    73.099     0.000     0.403    13.293    15.161     0.392     0.980     0.120     0.001     0.000     0.065     0.759     0.002     0.000 .00000E+00 0.000E+00 0.000E+00 0.000E+00 0.000E+00 0.000E+00
BIGSUB  10        0   11.10392E+04     2.424     2.400    25.168     8.732    72.665     0.000     0.431    13.072    15.026     0.416     0.981     0.120     0.001     0.000     0.065     0.835     0.002     0.000 .00000E+00 0.000E+00 0.000E+00 0.000E+00 0.000E+00 0.000E+00
BIGSUB  11        0   11.41096E+03     2.572     2.400    26.379     9.310    68.318     0.000     0.316    12.544    14.419     0.526     0.654     0.080     0.001     0.000     0.044     0.865     0.002     0.001 .00000E+00 0.000E+00 0.000E+00 0.000E+00 0.000E+00 0.000E+00
BIGSUB  12        0   11.16915E+03     0.206     0.000    37.078     8.984    44.284     0.174     0.000     5.045     6.309     0.000     0.000     0.000     0.000     0.000     0.000     0.945     0.005     0.000 .00000E+00 0.000E+00 0.000E+00 0.000E+00 0.000E+00 0.000E+00
BIGSUB  13        0   11.33387E+03     0.195     0.000    29.725     5.882    54.173     0.000     0.000     9.286    10.902     0.000     0.000     0.000     0.000     0.000     0.000     0.999     0.004     0.000 .00000E+00 0.000E+00 0.000E+00 0.000E+00 0.000E+00 0.000E+00
BIGSUB  14        0   11.78238E+02     0.206     0.000    36.802     9.344    55.325     0.223     0.000     2.196     3.471     0.000     0.000     0.000     0.000     0.000     0.000     1.136     0.007     0.000 .00000E+00 0.000E+00 0.000E+00 0.000E+00 0.000E+00 0.000E+00
BIGSUB  15        0   11.11183E+04     0.205     0.000    36.397     8.986    39.876     0.052     0.000     3.027     3.947     0.000     0.000     0.000     0.000     0.000     0.000     0.693     0.004     0.000 .00000E+00 0.000E+00 0.000E+00 0.000E+00 0.000E+00 0.000E+00
BIGSUB  16        0   11.14036E+03     0.206     0.000    36.808     9.944    55.121     0.181     0.000     2.704     3.533     0.000     0.000     0.000     0.000     0.000     0.000     0.668     0.004     0.001 .00000E+00 0.000E+00 0.000E+00 0.000E+00 0.000E+00 0.000E+00
BIGSUB  17        0   11.46105E+02     0.000     0.000    37.314     9.958    45.430     0.081     0.000     6.619     7.508     0.000     0.000     0.000     0.000     0.000     0.000     0.538     0.002     0.002 .00000E+00 0.000E+00 0.000E+00 0.000E+00 0.000E+00 0.000E+00
BIGSUB  18        0   11.21983E+03     0.191     0.000    34.586     6.618    34.568     0.096     0.000     8.873    10.450     0.000     0.000     0.000     0.000     0.000     0.000     1.054     0.004     0.000 .00000E+00 0.000E+00 0.000E+00 0.000E+00 0.000E+00 0.000E+00
BIGSUB  19        0   11.43761E+03     0.000     0.000    36.468     9.340    61.915     0.337     0.000     3.840     5.319     0.000     0.000     0.000     0.000     0.000     0.000     1.229     0.006     0.000 .00000E+00 0.000E+00 0.000E+00 0.000E+00 0.000E+00 0.000E+00
BIGSUB  20        0   11.34348E+03     0.000     0.000    36.853    10.346    64.970     0.623     0.000     1.223     2.451     0.000     0.000     0.000     0.000     0.000     0.000     1.108     0.006     0.000 .00000E+00 0.000E+00 0.000E+00 0.000E+00 0.000E+00 0.000E+00
BIGSUB  21        0   11.61613E+03     0.000     0.000    35.615    10.947    72.800     1.015     0.000     0.160     1.133     0.000     0.000     0.000     0.000     0.000     0.000     0.875     0.005     0.000 .00000E+00 0.000E+00 0.000E+00 0.000E+00 0.000E+00 0.000E+00
BIGSUB  22        0   11.67181E+03    10.557     0.000    24.862     8.725    76.916     0.594     0.000     1.838     2.744     0.000     0.000     0.000     0.000     0.000     0.000     0.772     0.002     0.000 .00000E+00 0.000E+00 0.000E+00 0.000E+00 0.000E+00 0.000E+00
BIGSUB  23        0   11.35635E+03     0.000     0.000    34.546     8.535    50.337     0.482     0.000     6.828     7.812     0.000     0.000     0.000     0.000     0.000     0.000     0.559     0.002     0.000 .00000E+00 0.000E+00 0.000E+00 0.000E+00 0.000E+00 0.000E+00
