1
    SWAT Dec 23 2016    VER 2016/Rev 664                                                                 0/ 0/   0      0: 0: 0

    General Input/Output section (file.cio):                                        
    2020/2/22 0:00:00 ARCGIS-SWAT interface AV                                      
                                                                                    
         Number of years in run:    8
         Area of watershed:     9886.746 km2
1
    SWAT Dec 23 2016    VER 2016/Rev 664                                            

    General Input/Output section (file.cio):                                        
    2020/2/22 0:00:00 ARCGIS-SWAT interface AV                                      
                                                                                    
Annual Summary for Watershed in year    1 of simulation

UNIT                                    PERCO    TILE                           WATER     SED     NO3     NO3     NO3     NO3        N       P       P
TIME     PREC    SURQ    LATQ     GWQ    LATE       Q     SW       ET     PET   YIELD   YIELD    SURQ    LATQ    PERC    CROP  ORGANIC SOLUBLE ORGANIC TILENO3
         (mm)    (mm)    (mm)    (mm)    (mm)    (mm)    (mm)    (mm)    (mm)    (mm)   (t/ha)  ------------------(kg nutrient/ha)-------------------- (kg/ha)
    1    0.61    0.00    0.00    0.00    0.00    0.00    6.09    1.64   18.18    0.00    0.00    0.00    0.00    0.00    0.00     0.00    0.00    0.00    0.00
    2    1.71    0.01    0.00    0.00    0.00    0.00    5.60    3.66   33.34    0.01    0.02    0.02    0.00    0.00    0.00     0.20    0.00    0.03    0.00
    3    8.03    0.90    0.00    0.00    0.00    0.00    6.25    8.18   48.64    0.90    0.68    0.19    0.00    0.00    0.00     5.36    0.00    0.66    0.00
    4   17.51    0.35    0.55    0.01    0.14    0.00    8.96   15.63   83.59    0.91    0.74    0.08    0.04    0.05    0.00     6.60    0.00    0.81    0.00
    5   46.15    0.14    2.33    0.08    1.20    0.00   19.29   33.18  125.33    2.55    0.47    0.00    0.08    0.66    0.40     2.32    0.00    0.28    0.00
    6   77.85    0.98    5.33    0.42    4.40    0.00   35.74   51.01  120.72    6.75    2.90    0.00    0.11    0.75    0.45    12.35    0.00    1.51    0.00
    7   93.78    4.93    8.28    3.08    9.43    0.00   46.02   61.97  120.59   16.33   12.62    0.00    0.11    0.85    3.96    50.51    0.00    6.19    0.00
    8   94.56    4.47    7.08    5.15    8.26    0.00   54.35   66.84  118.41   16.86   10.83    0.00    0.03    0.49    8.83    46.44    0.00    5.69    0.00
    9   66.06    3.69    6.18    6.00    8.09    0.00   55.65   48.86   82.17   16.07   10.59    0.00    0.02    0.91    0.38    41.08    0.00    5.03    0.00
   10   28.51    1.68    3.57    6.21    4.38    0.00   51.00   25.19   44.47   11.73    6.49    0.00    0.01    0.51    0.00    19.47    0.00    2.39    0.00
   11    0.30    0.13    0.61    3.94    0.00    0.00   42.74   10.14   34.54    4.92    0.02    0.00    0.00    0.00    0.00     0.10    0.00    0.01    0.00
   12    0.27    0.00    0.16    1.47    0.00    0.00   40.04    3.48   19.85    1.84    0.00    0.00    0.00    0.00    0.00     0.00    0.00    0.00    0.00

 2007  435.35   17.29   34.09   26.36   35.89    0.00   40.04  329.79  849.83   78.88   45.37    0.29    0.42    4.23   14.01   184.43    0.01   22.59    0.00
1
    SWAT Dec 23 2016    VER 2016/Rev 664                                            

    General Input/Output section (file.cio):                                        
    2020/2/22 0:00:00 ARCGIS-SWAT interface AV                                      
                                                                                    
Annual Summary for Watershed in year    2 of simulation

UNIT                                    PERCO    TILE                           WATER     SED     NO3     NO3     NO3     NO3        N       P       P
TIME     PREC    SURQ    LATQ     GWQ    LATE       Q     SW       ET     PET   YIELD   YIELD    SURQ    LATQ    PERC    CROP  ORGANIC SOLUBLE ORGANIC TILENO3
         (mm)    (mm)    (mm)    (mm)    (mm)    (mm)    (mm)    (mm)    (mm)    (mm)   (t/ha)  ------------------(kg nutrient/ha)-------------------- (kg/ha)
    1    6.29    0.00    0.06    0.34    0.00    0.00   39.65    1.01    7.21    0.56    0.00    0.00    0.00    0.00    0.00     0.00    0.00    0.00    0.00
    2    1.85    0.41    0.02    0.09    0.00    0.00   39.96    2.82   11.72    0.64    0.26    0.00    0.00    0.00    0.00     1.26    0.00    0.16    0.00
    3    6.75    1.83    0.09    0.00    0.03    0.00   39.61   11.26   47.80    2.02    1.54    0.00    0.00    0.00    0.00     8.45    0.00    1.04    0.00
    4   25.92    1.87    1.08    0.00    0.32    0.00   40.28   24.51   81.25    3.02    3.59    0.00    0.03    0.01    0.00    14.45    0.00    1.77    0.00
    5   24.33    0.07    1.71    0.01    0.50    0.00   33.12   31.77  120.88    1.85    0.27    0.00    0.03    0.00    0.11     0.73    0.00    0.09    0.00
    6   57.61    0.91    3.83    0.13    2.52    0.00   38.19   47.10  133.70    4.92    2.75    0.00    0.06    0.01    0.37     7.07    0.00    0.87    0.00
    7  137.78   10.37    9.21    1.71   15.90    0.00   70.83   64.88  118.36   21.21   30.29    0.00    0.14    1.04    4.01    71.37    0.00    8.74    0.00
    8   67.16    6.31    9.39    6.42    9.93    0.00   58.59   59.44  122.33   22.45   18.35    0.00    0.07    0.36    3.05    33.43    0.00    4.10    0.00
    9   93.42    5.65    9.00    7.77   12.23    0.00   75.16   48.83   82.45   22.70   11.79    0.00    0.05    0.28    0.25    18.72    0.00    2.30    0.00
   10   15.61    1.09    3.76    8.32    3.46    0.00   61.54   25.57   53.96   13.51    3.50    0.00    0.02    0.04    0.01     4.69    0.00    0.57    0.00
   11    1.91    0.10    0.65    5.20    0.16    0.00   54.70    8.74   30.33    6.28    0.14    0.00    0.00    0.00    0.00     0.27    0.00    0.03    0.00
