1
    SWAT Dec 23 2016    VER 2016/Rev 664                                                                 0/ 0/   0      0: 0: 0

    General Input/Output section (file.cio):                                        
    2020/2/22 0:00:00 ARCGIS-SWAT interface AV                                      
                                                                                    


       RCH      GIS   MON     AREAkm2  FLOW_INcms FLOW_OUTcms     EVAPcms    TLOSScms  SED_INtons SED_OUTtons SEDCONCmg/L   ORGN_INkg  ORGN_OUTkg   ORGP_INkg  ORGP_OUTkg    NO3_INkg   NO3_OUTkg    NH4_INkg   NH4_OUTkg    NO2_INkg   NO2_OUTkg   MINP_INkg  MINP_OUTkg   CHLA_INkg  CHLA_OUTkg   CBOD_INkg  CBOD_OUTkg  DISOX_INkg DISOX_OUTkg SOLPST_INmgSOLPST_OUTmg SORPST_INmgSORPST_OUTmg  REACTPSTmg    VOLPSTmg  SETTLPSTmgRESUSP_PSTmgDIFFUSEPSTmgREACBEDPSTmg   BURYPSTmg   BED_PSTmg BACTP_OUTctBACTLP_OUTct  CMETAL#1kg  CMETAL#2kg  CMETAL#3kg     TOT Nkg     TOT Pkg NO3ConcMg/l    WTMPdegc
REACH    1        0     1  0.9887E+04  0.1407E-05  0.0000E+00  0.1407E-05  0.0000E+00  0.5579E-06  0.0000E+00  0.0000E+00  0.3456E-03  0.0000E+00  0.1037E-02  0.0000E+00  0.3460E-03  0.0000E+00  0.0000E+00  0.0000E+00  0.0000E+00  0.0000E+00  0.3460E-03  0.0000E+00  0.0000E+00  0.0000E+00  0.0000E+00  0.0000E+00  0.0000E+00  0.0000E+00  0.0000E+00  0.0000E+00  0.0000E+00  0.0000E+00  0.0000E+00  0.0000E+00  0.0000E+00  0.0000E+00  0.0000E+00  0.0000E+00  0.0000E+00  0.0000E+00  0.0000E+00  0.0000E+00  0.0000E+00  0.0000E+00  0.0000E+00  0.0000E+00  0.0000E+00  0.0000E+00  0.0000E+00
REACH    2        0     1  0.3782E+03  0.3113E-05  0.0000E+00  0.3113E-05  0.0000E+00  0.4483E-06  0.0000E+00  0.0000E+00  0.8215E-03  0.0000E+00  0.2464E-02  0.0000E+00  0.8227E-03  0.0000E+00  0.0000E+00  0.0000E+00  0.0000E+00  0.0000E+00  0.8227E-03  0.0000E+00  0.0000E+00  0.0000E+00  0.0000E+00  0.0000E+00  0.0000E+00  0.0000E+00  0.0000E+00  0.0000E+00  0.0000E+00  0.0000E+00  0.0000E+00  0.0000E+00  0.0000E+00  0.0000E+00  0.0000E+00  0.0000E+00  0.0000E+00  0.0000E+00  0.0000E+00  0.0000E+00  0.0000E+00  0.0000E+00  0.0000E+00  0.0000E+00  0.0000E+00  0.0000E+00  0.0000E+00
REACH    3        0     1  0.1486E+04  0.1246E-04  0.0000E+00  0.1246E-04  0.0000E+00  0.3706E-06  0.0000E+00  0.0000E+00  0.3130E-02  0.0000E+00  0.9389E-02  0.0000E+00  0.3134E-02  0.0000E+00  0.0000E+00  0.0000E+00  0.0000E+00  0.0000E+00  0.3134E-02  0.0000E+00  0.0000E+00  0.0000E+00  0.0000E+00  0.0000E+00  0.0000E+00  0.0000E+00  0.0000E+00  0.0000E+00  0.0000E+00  0.0000E+00  0.0000E+00  0.0000E+00  0.0000E+00  0.0000E+00  0.0000E+00  0.0000E+00  0.0000E+00  0.0000E+00  0.0000E+00  0.0000E+00  0.0000E+00  0.0000E+00  0.0000E+00  0.0000E+00  0.0000E+00  0.0000E+00  0.0000E+00
REACH    4        0     1  0.9456E+04  0.1785E-05  0.0000E+00  0.1785E-05  0.0000E+00  0.4647E-06  0.0000E+00  0.0000E+00  0.4834E-03  0.0000E+00  0.1450E-02  0.0000E+00  0.4839E-03  0.0000E+00  0.0000E+00  0.0000E+00  0.0000E+00  0.0000E+00  0.4839E-03  0.0000E+00  0.0000E+00  0.0000E+00  0.0000E+00  0.0000E+00  0.0000E+00  0.0000E+00  0.0000E+00  0.0000E+00  0.0000E+00  0.0000E+00  0.0000E+00  0.0000E+00  0.0000E+00  0.0000E+00  0.0000E+00  0.0000E+00  0.0000E+00  0.0000E+00  0.0000E+00  0.0000E+00  0.0000E+00  0.0000E+00  0.0000E+00  0.0000E+00  0.0000E+00  0.0000E+00  0.0000E+00
REACH    5        0     1  0.2643E+03  0.3047E-05  0.0000E+00  0.3047E-05  0.0000E+00  0.1053E-05  0.0000E+00  0.0000E+00  0.8212E-03  0.0000E+00  0.2464E-02  0.0000E+00  0.8221E-03  0.0000E+00  0.0000E+00  0.0000E+00  0.0000E+00  0.0000E+00  0.8221E-03  0.0000E+00  0.0000E+00  0.0000E+00  0.0000E+00  0.0000E+00  0.0000E+00  0.0000E+00  0.0000E+00  0.0000E+00  0.0000E+00  0.0000E+00  0.0000E+00  0.0000E+00  0.0000E+00  0.0000E+00  0.0000E+00  0.0000E+00  0.0000E+00  0.0000E+00  0.0000E+00  0.0000E+00  0.0000E+00  0.0000E+00  0.0000E+00  0.0000E+00  0.0000E+00  0.0000E+00  0.0000E+00
REACH    6        0     1  0.7374E+03  0.6767E-06  0.0000E+00  0.6767E-06  0.0000E+00  0.2789E-06  0.0000E+00  0.0000E+00  0.1864E-03  0.0000E+00  0.5593E-03  0.0000E+00  0.1866E-03  0.0000E+00  0.0000E+00  0.0000E+00  0.0000E+00  0.0000E+00  0.1866E-03  0.0000E+00  0.0000E+00  0.0000E+00  0.0000E+00  0.0000E+00  0.0000E+00  0.0000E+00  0.0000E+00  0.0000E+00  0.0000E+00  0.0000E+00  0.0000E+00  0.0000E+00  0.0000E+00  0.0000E+00  0.0000E+00  0.0000E+00  0.0000E+00  0.0000E+00  0.0000E+00  0.0000E+00  0.0000E+00  0.0000E+00  0.0000E+00  0.0000E+00  0.0000E+00  0.0000E+00  0.0000E+00
REACH    7        0     1  0.3091E+03  0.3571E-05  0.0000E+00  0.3571E-05  0.0000E+00  0.1084E-05  0.0000E+00  0.0000E+00  0.9572E-03  0.0000E+00  0.2872E-02  0.0000E+00  0.9582E-03  0.0000E+00  0.0000E+00  0.0000E+00  0.0000E+00  0.0000E+00  0.9582E-03  0.0000E+00  0.0000E+00  0.0000E+00  0.0000E+00  0.0000E+00  0.0000E+00  0.0000E+00  0.0000E+00  0.0000E+00  0.0000E+00  0.0000E+00  0.0000E+00  0.0000E+00  0.0000E+00  0.0000E+00  0.0000E+00  0.0000E+00  0.0000E+00  0.0000E+00  0.0000E+00  0.0000E+00  0.0000E+00  0.0000E+00  0.0000E+00  0.0000E+00  0.0000E+00  0.0000E+00  0.0000E+00
REACH    8        0     1  0.4145E+03  0.4785E-05  0.0000E+00  0.4785E-05  0.0000E+00  0.9294E-06  0.0000E+00  0.0000E+00  0.1300E-02  0.0000E+00  0.3901E-02  0.0000E+00  0.1302E-02  0.0000E+00  0.0000E+00  0.0000E+00  0.0000E+00  0.0000E+00  0.1302E-02  0.0000E+00  0.0000E+00  0.0000E+00  0.0000E+00  0.0000E+00  0.0000E+00  0.0000E+00  0.0000E+00  0.0000E+00  0.0000E+00  0.0000E+00  0.0000E+00  0.0000E+00  0.0000E+00  0.0000E+00  0.0000E+00  0.0000E+00  0.0000E+00  0.0000E+00  0.0000E+00  0.0000E+00  0.0000E+00  0.0000E+00  0.0000E+00  0.0000E+00  0.0000E+00  0.0000E+00  0.0000E+00
REACH    9        0     1  0.2583E+04  0.6949E-05  0.0000E+00  0.6949E-05  0.0000E+00  0.4465E-06  0.0000E+00  0.0000E+00  0.1852E-02  0.0000E+00  0.5557E-02  0.0000E+00  0.1855E-02  0.0000E+00  0.0000E+00  0.0000E+00  0.0000E+00  0.0000E+00  0.1855E-02  0.0000E+00  0.0000E+00  0.0000E+00  0.0000E+00  0.0000E+00  0.0000E+00  0.0000E+00  0.0000E+00  0.0000E+00  0.0000E+00  0.0000E+00  0.0000E+00  0.0000E+00  0.0000E+00  0.0000E+00  0.0000E+00  0.0000E+00  0.0000E+00  0.0000E+00  0.0000E+00  0.0000E+00  0.0000E+00  0.0000E+00  0.0000E+00  0.0000E+00  0.0000E+00  0.0000E+00  0.0000E+00
REACH   10        0     1  0.1039E+04  0.1019E-04  0.0000E+00  0.1019E-04  0.0000E+00  0.3884E-06  0.0000E+00  0.0000E+00  0.2552E-02  0.0000E+00  0.7656E-02  0.0000E+00  0.2555E-02  0.0000E+00  0.0000E+00  0.0000E+00  0.0000E+00  0.0000E+00  0.2555E-02  0.0000E+00  0.0000E+00  0.0000E+00  0.0000E+00  0.0000E+00  0.0000E+00  0.0000E+00  0.0000E+00  0.0000E+00  0.0000E+00  0.0000E+00  0.0000E+00  0.0000E+00  0.0000E+00  0.0000E+00  0.0000E+00  0.0000E+00  0.0000E+00  0.0000E+00  0.0000E+00  0.0000E+00  0.0000E+00  0.0000E+00  0.0000E+00  0.0000E+00  0.0000E+00  0.0000E+00  0.0000E+00
REACH   11        0     1  0.4033E+04  0.4537E-05  0.0000E+00  0.4537E-05  0.0000E+00  0.6138E-06  0.0000E+00  0.0000E+00  0.1220E-02  0.0000E+00  0.3659E-02  0.0000E+00  0.1221E-02  0.0000E+00  0.0000E+00  0.0000E+00  0.0000E+00  0.0000E+00  0.1221E-02  0.0000E+00  0.0000E+00  0.0000E+00  0.0000E+00  0.0000E+00  0.0000E+00  0.0000E+00  0.0000E+00  0.0000E+00  0.0000E+00  0.0000E+00  0.0000E+00  0.0000E+00  0.0000E+00  0.0000E+00  0.0000E+00  0.0000E+00  0.0000E+00  0.0000E+00  0.0000E+00  0.0000E+00  0.0000E+00  0.0000E+00  0.0000E+00  0.0000E+00  0.0000E+00  0.0000E+00  0.0000E+00
REACH   12        0     1  0.4536E+04  0.1955E-05  0.0000E+00  0.1955E-05  0.0000E+00  0.8057E-06  0.0000E+00  0.0000E+00  0.5208E-03  0.0000E+00  0.1563E-02  0.0000E+00  0.5214E-03  0.0000E+00  0.0000E+00  0.0000E+00  0.0000E+00  0.0000E+00  0.5214E-03  0.0000E+00  0.0000E+00  0.0000E+00  0.0000E+00  0.0000E+00  0.0000E+00  0.0000E+00  0.0000E+00  0.0000E+00  0.0000E+00  0.0000E+00  0.0000E+00  0.0000E+00  0.0000E+00  0.0000E+00  0.0000E+00  0.0000E+00  0.0000E+00  0.0000E+00  0.0000E+00  0.0000E+00  0.0000E+00  0.0000E+00  0.0000E+00  0.0000E+00  0.0000E+00  0.0000E+00  0.0000E+00
REACH   13        0     1  0.3339E+03  0.3838E-05  0.0000E+00  0.3838E-05  0.0000E+00  0.5258E-06  0.0000E+00  0.0000E+00  0.9585E-03  0.0000E+00  0.2876E-02  0.0000E+00  0.9595E-03  0.0000E+00  0.0000E+00  0.0000E+00  0.0000E+00  0.0000E+00  0.9595E-03  0.0000E+00  0.0000E+00  0.0000E+00  0.0000E+00  0.0000E+00  0.0000E+00  0.0000E+00  0.0000E+00  0.0000E+00  0.0000E+00  0.0000E+00  0.0000E+00  0.0000E+00  0.0000E+00  0.0000E+00  0.0000E+00  0.0000E+00  0.0000E+00  0.0000E+00  0.0000E+00  0.0000E+00  0.0000E+00  0.0000E+00  0.0000E+00  0.0000E+00  0.0000E+00  0.0000E+00  0.0000E+00
REACH   14        0     1  0.4614E+04  0.9043E-06  0.0000E+00  0.9043E-06  0.0000E+00  0.5873E-06  0.0000E+00  0.0000E+00  0.2436E-03  0.0000E+00  0.7308E-03  0.0000E+00  0.2439E-03  0.0000E+00  0.0000E+00  0.0000E+00  0.0000E+00  0.0000E+00  0.2439E-03  0.0000E+00  0.0000E+00  0.0000E+00  0.0000E+00  0.0000E+00  0.0000E+00  0.0000E+00  0.0000E+00  0.0000E+00  0.0000E+00  0.0000E+00  0.0000E+00  0.0000E+00  0.0000E+00  0.0000E+00  0.0000E+00  0.0000E+00  0.0000E+00  0.0000E+00  0.0000E+00  0.0000E+00  0.0000E+00  0.0000E+00  0.0000E+00  0.0000E+00  0.0000E+00  0.0000E+00  0.0000E+00
REACH   15        0     1  0.8564E+04  0.1272E-04  0.0000E+00  0.1272E-04  0.0000E+00  0.7404E-06  0.0000E+00  0.0000E+00  0.3434E-02  0.0000E+00  0.1030E-01  0.0000E+00  0.3437E-02  0.0000E+00  0.0000E+00  0.0000E+00  0.0000E+00  0.0000E+00  0.3437E-02  0.0000E+00  0.0000E+00  0.0000E+00  0.0000E+00  0.0000E+00  0.0000E+00  0.0000E+00  0.0000E+00  0.0000E+00  0.0000E+00  0.0000E+00  0.0000E+00  0.0000E+00  0.0000E+00  0.0000E+00  0.0000E+00  0.0000E+00  0.0000E+00  0.0000E+00  0.0000E+00  0.0000E+00  0.0000E+00  0.0000E+00  0.0000E+00  0.0000E+00  0.0000E+00  0.0000E+00  0.0000E+00
REACH   16        0     1  0.4974E+04  0.1621E-05  0.0000E+00  0.1621E-05  0.0000E+00  0.5260E-06  0.0000E+00  0.0000E+00  0.4364E-03  0.0000E+00  0.1309E-02  0.0000E+00  0.4369E-03  0.0000E+00  0.0000E+00  0.0000E+00  0.0000E+00  0.0000E+00  0.4369E-03  0.0000E+00  0.0000E+00  0.0000E+00  0.0000E+00  0.0000E+00  0.0000E+00  0.0000E+00  0.0000E+00  0.0000E+00  0.0000E+00  0.0000E+00  0.0000E+00  0.0000E+00  0.0000E+00  0.0000E+00  0.0000E+00  0.0000E+00  0.0000E+00  0.0000E+00  0.0000E+00  0.0000E+00  0.0000E+00  0.0000E+00  0.0000E+00  0.0000E+00  0.0000E+00  0.0000E+00  0.0000E+00
REACH   17        0     1  0.2471E+04  0.5335E-06  0.0000E+00  0.5335E-06  0.0000E+00  0.1271E-05  0.0000E+00  0.0000E+00  0.1427E-03  0.0000E+00  0.4282E-03  0.0000E+00  0.1429E-03  0.0000E+00  0.0000E+00  0.0000E+00  0.0000E+00  0.0000E+00  0.1429E-03  0.0000E+00  0.0000E+00  0.0000E+00  0.0000E+00  0.0000E+00  0.0000E+00  0.0000E+00  0.0000E+00  0.0000E+00  0.0000E+00  0.0000E+00  0.0000E+00  0.0000E+00  0.0000E+00  0.0000E+00  0.0000E+00  0.0000E+00  0.0000E+00  0.0000E+00  0.0000E+00  0.0000E+00  0.0000E+00  0.0000E+00  0.0000E+00  0.0000E+00  0.0000E+00  0.0000E+00  0.0000E+00
REACH   18        0     1  0.2198E+03  0.2542E-05  0.0000E+00  0.2542E-05  0.0000E+00  0.8051E-06  0.0000E+00  0.0000E+00  0.6315E-03  0.0000E+00  0.1894E-02  0.0000E+00  0.6321E-03  0.0000E+00  0.0000E+00  0.0000E+00  0.0000E+00  0.0000E+00  0.6321E-03  0.0000E+00  0.0000E+00  0.0000E+00  0.0000E+00  0.0000E+00  0.0000E+00  0.0000E+00  0.0000E+00  0.0000E+00  0.0000E+00  0.0000E+00  0.0000E+00  0.0000E+00  0.0000E+00  0.0000E+00  0.0000E+00  0.0000E+00  0.0000E+00  0.0000E+00  0.0000E+00  0.0000E+00  0.0000E+00  0.0000E+00  0.0000E+00  0.0000E+00  0.0000E+00  0.0000E+00  0.0000E+00
REACH   19        0     1  0.2425E+04  0.5059E-05  0.0000E+00  0.5059E-05  0.0000E+00  0.1549E-05  0.0000E+00  0.0000E+00  0.1328E-02  0.0000E+00  0.3985E-02  0.0000E+00  0.1330E-02  0.0000E+00  0.0000E+00  0.0000E+00  0.0000E+00  0.0000E+00  0.1330E-02  0.0000E+00  0.0000E+00  0.0000E+00  0.0000E+00  0.0000E+00  0.0000E+00  0.0000E+00  0.0000E+00  0.0000E+00  0.0000E+00  0.0000E+00  0.0000E+00  0.0000E+00  0.0000E+00  0.0000E+00  0.0000E+00  0.0000E+00  0.0000E+00  0.0000E+00  0.0000E+00  0.0000E+00  0.0000E+00  0.0000E+00  0.0000E+00  0.0000E+00  0.0000E+00  0.0000E+00  0.0000E+00
REACH   20        0     1  0.3435E+03  0.3839E-05  0.0000E+00  0.3839E-05  0.0000E+00  0.6475E-06  0.0000E+00  0.0000E+00  0.1030E-02  0.0000E+00  0.3089E-02  0.0000E+00  0.1031E-02  0.0000E+00  0.0000E+00  0.0000E+00  0.0000E+00  0.0000E+00  0.1031E-02  0.0000E+00  0.0000E+00  0.0000E+00  0.0000E+00  0.0000E+00  0.0000E+00  0.0000E+00  0.0000E+00  0.0000E+00  0.0000E+00  0.0000E+00  0.0000E+00  0.0000E+00  0.0000E+00  0.0000E+00  0.0000E+00  0.0000E+00  0.0000E+00  0.0000E+00  0.0000E+00  0.0000E+00  0.0000E+00  0.0000E+00  0.0000E+00  0.0000E+00  0.0000E+00  0.0000E+00  0.0000E+00
REACH   21        0     1  0.1644E+04  0.6350E-05  0.0000E+00  0.6350E-05  0.0000E+00  0.7661E-06  0.0000E+00  0.0000E+00  0.1593E-02  0.0000E+00  0.4780E-02  0.0000E+00  0.1595E-02  0.0000E+00  0.0000E+00  0.0000E+00  0.0000E+00  0.0000E+00  0.1595E-02  0.0000E+00  0.0000E+00  0.0000E+00  0.0000E+00  0.0000E+00  0.0000E+00  0.0000E+00  0.0000E+00  0.0000E+00  0.0000E+00  0.0000E+00  0.0000E+00  0.0000E+00  0.0000E+00  0.0000E+00  0.0000E+00  0.0000E+00  0.0000E+00  0.0000E+00  0.0000E+00  0.0000E+00  0.0000E+00  0.0000E+00  0.0000E+00  0.0000E+00  0.0000E+00  0.0000E+00  0.0000E+00
REACH   22        0     1  0.6718E+03  0.6223E-05  0.0000E+00  0.6223E-05  0.0000E+00  0.5113E-06  0.0000E+00  0.0000E+00  0.1556E-02  0.0000E+00  0.4667E-02  0.0000E+00  0.1558E-02  0.0000E+00  0.0000E+00  0.0000E+00  0.0000E+00  0.0000E+00  0.1558E-02  0.0000E+00  0.0000E+00  0.0000E+00  0.0000E+00  0.0000E+00  0.0000E+00  0.0000E+00  0.0000E+00  0.0000E+00  0.0000E+00  0.0000E+00  0.0000E+00  0.0000E+00  0.0000E+00  0.0000E+00  0.0000E+00  0.0000E+00  0.0000E+00  0.0000E+00  0.0000E+00  0.0000E+00  0.0000E+00  0.0000E+00  0.0000E+00  0.0000E+00  0.0000E+00  0.0000E+00  0.0000E+00
REACH   23        0     1  0.3564E+03  0.3956E-05  0.0000E+00  0.3956E-05  0.0000E+00  0.6143E-06  0.0000E+00  0.0000E+00  0.9643E-03  0.0000E+00  0.2893E-02  0.0000E+00  0.9654E-03  0.0000E+00  0.0000E+00  0.0000E+00  0.0000E+00  0.0000E+00  0.9654E-03  0.0000E+00  0.0000E+00  0.0000E+00  0.0000E+00  0.0000E+00  0.0000E+00  0.0000E+00  0.0000E+00  0.0000E+00  0.0000E+00  0.0000E+00  0.0000E+00  0.0000E+00  0.0000E+00  0.0000E+00  0.0000E+00  0.0000E+00  0.0000E+00  0.0000E+00  0.0000E+00  0.0000E+00  0.0000E+00  0.0000E+00  0.0000E+00  0.0000E+00  0.0000E+00  0.0000E+00  0.0000E+00
REACH    1        0     2  0.9887E+04  0.3497E-02  0.0000E+00  0.3497E-02  0.0000E+00  0.5075E-01  0.0000E+00  0.0000E+00  0.1243E+05  0.0000E+00  0.1902E+04  0.0000E+00  0.1241E+04  0.0000E+00  0.3912E+04  0.0000E+00  0.1659E+02  0.0000E+00  0.1147E+02  0.0000E+00  0.4057E-12  0.0000E+00  0.4423E+05  0.0000E+00  0.6592E+01  0.0000E+00  0.0000E+00  0.0000E+00  0.0000E+00  0.0000E+00  0.0000E+00  0.0000E+00  0.0000E+00  0.0000E+00  0.0000E+00  0.0000E+00  0.0000E+00  0.0000E+00  0.0000E+00  0.0000E+00  0.0000E+00  0.0000E+00  0.0000E+00  0.0000E+00  0.0000E+00  0.0000E+00  0.0000E+00
REACH    2        0     2  0.3782E+03  0.3898E-03  0.8022E-04  0.3096E-03  0.0000E+00  0.5357E+02  0.5357E+02  0.7407E+04  0.5389E+03  0.9832E+02  0.1020E+03  0.1683E+02  0.2016E+02  0.2028E+01  0.0000E+00  0.1409E+02  0.0000E+00  0.0000E+00  0.4220E-01  0.2587E-01  0.2236E+02  0.0000E+00  0.2036E+05  0.1159E+04  0.5527E-01  0.1667E-01  0.0000E+00  0.0000E+00  0.0000E+00  0.0000E+00  0.0000E+00  0.0000E+00  0.0000E+00  0.0000E+00  0.0000E+00  0.0000E+00  0.0000E+00  0.0000E+00  0.0000E+00  0.0000E+00  0.0000E+00  0.0000E+00  0.0000E+00  0.1144E+03  0.1685E+02  0.0000E+00  0.0000E+00
REACH    3        0     2  0.1486E+04  0.1083E-01  0.6890E-02  0.3945E-02  0.0000E+00  0.2007E+04  0.2007E+04  0.4625E+04  0.1673E+05  0.9394E+04  0.3191E+04  0.1620E+04  0.3138E+04  0.1765E+04  0.0000E+00  0.1337E+04  0.0000E+00  0.0000E+00  0.1122E+01  0.2138E+01  0.7946E+03  0.0000E+00  0.6312E+06  0.1100E+06  0.7681E+00  0.1431E+01  0.0000E+00  0.0000E+00  0.0000E+00  0.0000E+00  0.0000E+00  0.0000E+00  0.0000E+00  0.0000E+00  0.0000E+00  0.0000E+00  0.0000E+00  0.0000E+00  0.0000E+00  0.0000E+00  0.0000E+00  0.0000E+00  0.0000E+00  0.1250E+05  0.1623E+04  0.0000E+00  0.0000E+00
REACH    4        0     2  0.9456E+04  0.8629E-02  0.3256E-02  0.5373E-02  0.0000E+00  0.5482E+00  0.5075E-01  0.2475E+00  0.3395E+05  0.1243E+05  0.5796E+04  0.1902E+04  0.2912E+04  0.1220E+04  0.4779E+04  0.3912E+04  0.1350E+02  0.1659E+02  0.8757E+01  0.1147E+02  0.3976E-11  0.0000E+00  0.3818E+06  0.4423E+05  0.3929E+02  0.6764E+00  0.0000E+00  0.0000E+00  0.0000E+00  0.0000E+00  0.0000E+00  0.0000E+00  0.0000E+00  0.0000E+00  0.0000E+00  0.0000E+00  0.0000E+00  0.0000E+00  0.0000E+00  0.0000E+00  0.0000E+00  0.0000E+00  0.0000E+00  0.1758E+05  0.1914E+04  0.0000E+00  0.0000E+00
REACH    5        0     2  0.2643E+03  0.4599E-02  0.4100E-02  0.4982E-03  0.0000E+00  0.2502E+04  0.2502E+04  0.1481E+05  0.2374E+05  0.2026E+05  0.4445E+04  0.3640E+04  0.2127E+04  0.1687E+04  0.0000E+00  0.1227E+04  0.0000E+00  0.0000E+00  0.6200E+00  0.1658E+01  0.1035E+04  0.0000E+00  0.8098E+06  0.4082E+06  0.0000E+00  0.8517E+00  0.0000E+00  0.0000E+00  0.0000E+00  0.0000E+00  0.0000E+00  0.0000E+00  0.0000E+00  0.0000E+00  0.0000E+00  0.0000E+00  0.0000E+00  0.0000E+00  0.0000E+00  0.0000E+00  0.0000E+00  0.0000E+00  0.0000E+00  0.2317E+05  0.3642E+04  0.0000E+00  0.0000E+00
REACH    6        0     2  0.7374E+03  0.7875E-02  0.7239E-02  0.6356E-03  0.0000E+00  0.5324E+04  0.5482E+00  0.1298E+01  0.3880E+05  0.3395E+05  0.6822E+04  0.5796E+04  0.3029E+04  0.2778E+04  0.3569E+04  0.4779E+04  0.0000E+00  0.1350E+02  0.3175E+01  0.8757E+01  0.1695E+01  0.0000E+00  0.6289E+06  0.3818E+06  0.1623E+01  0.1504E+01  0.0000E+00  0.0000E+00  0.0000E+00  0.0000E+00  0.0000E+00  0.0000E+00  0.0000E+00  0.0000E+00  0.0000E+00  0.0000E+00  0.0000E+00  0.0000E+00  0.0000E+00  0.0000E+00  0.0000E+00  0.0000E+00  0.0000E+00  0.4153E+05  0.5805E+04  0.0000E+00  0.0000E+00
REACH    7        0     2  0.3091E+03  0.3703E-05  0.0000E+00  0.3703E-05  0.0000E+00  0.9793E-06  0.0000E+00  0.0000E+00  0.8646E-03  0.0000E+00  0.2594E-02  0.0000E+00  0.8655E-03  0.0000E+00  0.0000E+00  0.0000E+00  0.0000E+00  0.0000E+00  0.8655E-03  0.0000E+00  0.0000E+00  0.0000E+00  0.0000E+00  0.0000E+00  0.0000E+00  0.0000E+00  0.0000E+00  0.0000E+00  0.0000E+00  0.0000E+00  0.0000E+00  0.0000E+00  0.0000E+00  0.0000E+00  0.0000E+00  0.0000E+00  0.0000E+00  0.0000E+00  0.0000E+00  0.0000E+00  0.0000E+00  0.0000E+00  0.0000E+00  0.0000E+00  0.0000E+00  0.0000E+00  0.0000E+00
REACH    8        0     2  0.4145E+03  0.4844E-02  0.3713E-02  0.1130E-02  0.0000E+00  0.2791E+04  0.2791E+04  0.1481E+05  0.2625E+05  0.1851E+05  0.4915E+04  0.3173E+04  0.2259E+04  0.1332E+04  0.0000E+00  0.2342E+04  0.0000E+00  0.0000E+00  0.6587E+00  0.1514E+01  0.1140E+04  0.0000E+00  0.8956E+06  0.2195E+06  0.0000E+00  0.7713E+00  0.0000E+00  0.0000E+00  0.0000E+00  0.0000E+00  0.0000E+00  0.0000E+00  0.0000E+00  0.0000E+00  0.0000E+00  0.0000E+00  0.0000E+00  0.0000E+00  0.0000E+00  0.0000E+00  0.0000E+00  0.0000E+00  0.0000E+00  0.2218E+05  0.3174E+04  0.0000E+00  0.0000E+00
REACH    9        0     2  0.2583E+04  0.1470E-01  0.5554E-02  0.9142E-02  0.0000E+00  0.5222E+04  0.1963E+00  0.1113E+01  0.4161E+05  0.1366E+05  0.7651E+04  0.2263E+04  0.5301E+04  0.1751E+04  0.1351E+04  0.2530E+04  0.0000E+00  0.5185E+01  0.3194E+01  0.3615E+01  0.1426E+04  0.0000E+00  0.1206E+07  0.1201E+06  0.1705E+01  0.1154E+01  0.0000E+00  0.0000E+00  0.0000E+00  0.0000E+00  0.0000E+00  0.0000E+00  0.0000E+00  0.0000E+00  0.0000E+00  0.0000E+00  0.0000E+00  0.0000E+00  0.0000E+00  0.0000E+00  0.0000E+00  0.0000E+00  0.0000E+00  0.1794E+05  0.2266E+04  0.0000E+00  0.0000E+00
REACH   10        0     2  0.1039E+04  0.1122E-01  0.7272E-02  0.3948E-02  0.0000E+00  0.4649E+04  0.4138E+04  0.7407E+04  0.4635E+05  0.2718E+05  0.8677E+04  0.4580E+04  0.4826E+04  0.2435E+04  0.0000E+00  0.4076E+04  0.0000E+00  0.0000E+00  0.1405E+01  0.2731E+01  0.2047E+04  0.0000E+00  0.1580E+07  0.2718E+06  0.2217E+00  0.1511E+01  0.0000E+00  0.0000E+00  0.0000E+00  0.0000E+00  0.0000E+00  0.0000E+00  0.0000E+00  0.0000E+00  0.0000E+00  0.0000E+00  0.0000E+00  0.0000E+00  0.0000E+00  0.0000E+00  0.0000E+00  0.0000E+00  0.0000E+00  0.3369E+05  0.4583E+04  0.0000E+00  0.0000E+00
REACH   11        0     2  0.4033E+04  0.1529E-01  0.8230E-02  0.7057E-02  0.0000E+00  0.5285E+04  0.3560E+00  0.6867E+00  0.5217E+05  0.2712E+05  0.8964E+04  0.4198E+04  0.5321E+04  0.2893E+04  0.6606E+04  0.7892E+04  0.5185E+01  0.3959E+02  0.6678E+01  0.8342E+01  0.4985E+03  0.0000E+00  0.7784E+06  0.1268E+06  0.2664E+01  0.1710E+01  0.0000E+00  0.0000E+00  0.0000E+00  0.0000E+00  0.0000E+00  0.0000E+00  0.0000E+00  0.0000E+00  0.0000E+00  0.0000E+00  0.0000E+00  0.0000E+00  0.0000E+00  0.0000E+00  0.0000E+00  0.0000E+00  0.0000E+00  0.3795E+05  0.4206E+04  0.0000E+00  0.0000E+00
REACH   12        0     2  0.4536E+04  0.1023E-01  0.5098E-02  0.5137E-02  0.0000E+00  0.1065E+04  0.1416E+00  0.4411E+00  0.3454E+05  0.1394E+05  0.5478E+04  0.1931E+04  0.2915E+04  0.1793E+04  0.8759E+04  0.7028E+04  0.3959E+02  0.7356E+02  0.9011E+01  0.1550E+02  0.5268E+02  0.0000E+00  0.2488E+06  0.2038E+05  0.2055E+01  0.1059E+01  0.0000E+00  0.0000E+00  0.0000E+00  0.0000E+00  0.0000E+00  0.0000E+00  0.0000E+00  0.0000E+00  0.0000E+00  0.0000E+00  0.0000E+00  0.0000E+00  0.0000E+00  0.0000E+00  0.0000E+00  0.0000E+00  0.0000E+00  0.2284E+05  0.1946E+04  0.0000E+00  0.0000E+00
REACH   13        0     2  0.3339E+03  0.1990E-02  0.1664E-02  0.3263E-03  0.0000E+00  0.9275E+03  0.9275E+03  0.7407E+04  0.8338E+04  0.6121E+04  0.1561E+04  0.1038E+04  0.1382E+03  0.0000E+00  0.0000E+00  0.8671E+03  0.0000E+00  0.0000E+00  0.2489E+00  0.6233E+00  0.3390E+03  0.0000E+00  0.3152E+06  0.7312E+05  0.0000E+00  0.3456E+00  0.0000E+00  0.0000E+00  0.0000E+00  0.0000E+00  0.0000E+00  0.0000E+00  0.0000E+00  0.0000E+00  0.0000E+00  0.0000E+00  0.0000E+00  0.0000E+00  0.0000E+00  0.0000E+00  0.0000E+00  0.0000E+00  0.0000E+00  0.6988E+04  0.1038E+04  0.0000E+00  0.0000E+00
REACH   14        0     2  0.4614E+04  0.5435E-02  0.3805E-02  0.1630E-02  0.0000E+00  0.1166E+03  0.6480E-01  0.2704E+00  0.1509E+05  0.8635E+04  0.2145E+04  0.1070E+04  0.1815E+04  0.1340E+04  0.7028E+04  0.6543E+04  0.7356E+02  0.1191E+03  0.1555E+02  0.3471E+02  0.4671E+02  0.0000E+00  0.6370E+05  0.3948E+04  0.1059E+01  0.7904E+00  0.0000E+00  0.0000E+00  0.0000E+00  0.0000E+00  0.0000E+00  0.0000E+00  0.0000E+00  0.0000E+00  0.0000E+00  0.0000E+00  0.0000E+00  0.0000E+00  0.0000E+00  0.0000E+00  0.0000E+00  0.0000E+00  0.0000E+00  0.1664E+05  0.1105E+04  0.0000E+00  0.0000E+00
REACH   15        0     2  0.8564E+04  0.3051E-02  0.0000E+00  0.3051E-02  0.0000E+00  0.1291E+04  0.0000E+00  0.0000E+00  0.1257E+05  0.0000E+00  0.2265E+04  0.0000E+00  0.3713E+03  0.0000E+00  0.1212E+04  0.0000E+00  0.3150E+02  0.0000E+00  0.1695E+02  0.0000E+00  0.4630E+03  0.0000E+00  0.4318E+06  0.0000E+00  0.1262E+00  0.0000E+00  0.0000E+00  0.0000E+00  0.0000E+00  0.0000E+00  0.0000E+00  0.0000E+00  0.0000E+00  0.0000E+00  0.0000E+00  0.0000E+00  0.0000E+00  0.0000E+00  0.0000E+00  0.0000E+00  0.0000E+00  0.0000E+00  0.0000E+00  0.0000E+00  0.0000E+00  0.0000E+00  0.0000E+00
REACH   16        0     2  0.4974E+04  0.4345E-02  0.6073E-03  0.3737E-02  0.0000E+00  0.2518E+03  0.7371E-02  0.1927E+00  0.1047E+05  0.1144E+04  0.1394E+04  0.1268E+03  0.1352E+04  0.2146E+03  0.6690E+04  0.1212E+04  0.1191E+03  0.3150E+02  0.3487E+02  0.1662E+02  0.2469E+02  0.0000E+00  0.4373E+05  0.1635E+03  0.8664E+00  0.1262E+00  0.0000E+00  0.0000E+00  0.0000E+00  0.0000E+00  0.0000E+00  0.0000E+00  0.0000E+00  0.0000E+00  0.0000E+00  0.0000E+00  0.0000E+00  0.0000E+00  0.0000E+00  0.0000E+00  0.0000E+00  0.0000E+00  0.0000E+00  0.2602E+04  0.1434E+03  0.0000E+00  0.0000E+00
REACH   17        0     2  0.2471E+04  0.2441E-05  0.0000E+00  0.2441E-05  0.0000E+00  0.3575E+00  0.0000E+00  0.0000E+00  0.4086E+01  0.0000E+00  0.7653E+00  0.0000E+00  0.1726E+00  0.0000E+00  0.0000E+00  0.0000E+00  0.0000E+00  0.0000E+00  0.3802E-03  0.0000E+00  0.1703E+00  0.0000E+00  0.1544E+03  0.0000E+00  0.0000E+00  0.0000E+00  0.0000E+00  0.0000E+00  0.0000E+00  0.0000E+00  0.0000E+00  0.0000E+00  0.0000E+00  0.0000E+00  0.0000E+00  0.0000E+00  0.0000E+00  0.0000E+00  0.0000E+00  0.0000E+00  0.0000E+00  0.0000E+00  0.0000E+00  0.0000E+00  0.0000E+00  0.0000E+00  0.0000E+00
REACH   18        0     2  0.2198E+03  0.4693E-03  0.3643E-03  0.1050E-03  0.0000E+00  0.1899E+03  0.1899E+03  0.7407E+04  0.1761E+04  0.1224E+04  0.3297E+03  0.2109E+03  0.2760E+02  0.1998E-01  0.0000E+00  0.1470E+03  0.0000E+00  0.0000E+00  0.5822E-01  0.1350E+00  0.7154E+02  0.0000E+00  0.6657E+05  0.1687E+05  0.0000E+00  0.7599E-01  0.0000E+00  0.0000E+00  0.0000E+00  0.0000E+00  0.0000E+00  0.0000E+00  0.0000E+00  0.0000E+00  0.0000E+00  0.0000E+00  0.0000E+00  0.0000E+00  0.0000E+00  0.0000E+00  0.0000E+00  0.0000E+00  0.0000E+00  0.1371E+04  0.2111E+03  0.0000E+00  0.0000E+00
REACH   19        0     2  0.2425E+04  0.1226E-02  0.0000E+00  0.1226E-02  0.0000E+00  0.1383E+03  0.0000E+00  0.0000E+00  0.3746E+04  0.0000E+00  0.6328E+03  0.0000E+00  0.3140E+02  0.0000E+00  0.6131E+03  0.0000E+00  0.2697E+01  0.0000E+00  0.1024E+01  0.0000E+00  0.5327E+02  0.0000E+00  0.6287E+05  0.0000E+00  0.1820E+00  0.0000E+00  0.0000E+00  0.0000E+00  0.0000E+00  0.0000E+00  0.0000E+00  0.0000E+00  0.0000E+00  0.0000E+00  0.0000E+00  0.0000E+00  0.0000E+00  0.0000E+00  0.0000E+00  0.0000E+00  0.0000E+00  0.0000E+00  0.0000E+00  0.0000E+00  0.0000E+00  0.0000E+00  0.0000E+00
REACH   20        0     2  0.3435E+03  0.1652E-03  0.0000E+00  0.1652E-03  0.0000E+00  0.4885E+02  0.0000E+00  0.0000E+00  0.4948E+03  0.0000E+00  0.9263E+02  0.0000E+00  0.1477E+02  0.0000E+00  0.0000E+00  0.0000E+00  0.0000E+00  0.0000E+00  0.2244E-01  0.0000E+00  0.2038E+02  0.0000E+00  0.1870E+05  0.0000E+00  0.0000E+00  0.0000E+00  0.0000E+00  0.0000E+00  0.0000E+00  0.0000E+00  0.0000E+00  0.0000E+00  0.0000E+00  0.0000E+00  0.0000E+00  0.0000E+00  0.0000E+00  0.0000E+00  0.0000E+00  0.0000E+00  0.0000E+00  0.0000E+00  0.0000E+00  0.0000E+00  0.0000E+00  0.0000E+00  0.0000E+00
REACH   21        0     2  0.1644E+04  0.3571E-02  0.8709E-03  0.2700E-02  0.0000E+00  0.1970E+04  0.1709E-01  0.3116E+00  0.1139E+05  0.2446E+04  0.1979E+04  0.3894E+03  0.2145E+02  0.1441E-04  0.1228E+04  0.6131E+03  0.0000E+00  0.2697E+01  0.1278E+01  0.9771E+00  0.2899E+02  0.0000E+00  0.1791E+06  0.1371E+05  0.6975E+00  0.1820E+00  0.0000E+00  0.0000E+00  0.0000E+00  0.0000E+00  0.0000E+00  0.0000E+00  0.0000E+00  0.0000E+00  0.0000E+00  0.0000E+00  0.0000E+00  0.0000E+00  0.0000E+00  0.0000E+00  0.0000E+00  0.0000E+00  0.0000E+00  0.3061E+04  0.3903E+03  0.0000E+00  0.0000E+00
REACH   22        0     2  0.6718E+03  0.5112E-02  0.3338E-02  0.1774E-02  0.0000E+00  0.1899E+04  0.1899E+04  0.1481E+05  0.1792E+05  0.1068E+05  0.3356E+04  0.1847E+04  0.2547E+03  0.1936E+01  0.0000E+00  0.1228E+04  0.0000E+00  0.0000E+00  0.6376E+00  0.1248E+01  0.7270E+03  0.0000E+00  0.6776E+06  0.1525E+06  0.1584E-01  0.6975E+00  0.0000E+00  0.0000E+00  0.0000E+00  0.0000E+00  0.0000E+00  0.0000E+00  0.0000E+00  0.0000E+00  0.0000E+00  0.0000E+00  0.0000E+00  0.0000E+00  0.0000E+00  0.0000E+00  0.0000E+00  0.0000E+00  0.0000E+00  0.1191E+05  0.1848E+04  0.0000E+00  0.0000E+00
REACH   23        0     2  0.3564E+03  0.7214E-04  0.0000E+00  0.7214E-04  0.0000E+00  0.1135E+02  0.0000E+00  0.0000E+00  0.1303E+03  0.0000E+00  0.2440E+02  0.0000E+00  0.5701E+01  0.0000E+00  0.0000E+00  0.0000E+00  0.0000E+00  0.0000E+00  0.9119E-02  0.0000E+00  0.5442E+01  0.0000E+00  0.4927E+04  0.0000E+00  0.0000E+00  0.0000E+00  0.0000E+00  0.0000E+00  0.0000E+00  0.0000E+00  0.0000E+00  0.0000E+00  0.0000E+00  0.0000E+00  0.0000E+00  0.0000E+00  0.0000E+00  0.0000E+00  0.0000E+00  0.0000E+00  0.0000E+00  0.0000E+00  0.0000E+00  0.0000E+00  0.0000E+00  0.0000E+00  0.0000E+00
REACH    1        0     3  0.9887E+04  0.3113E+01  0.3074E+01  0.3901E-01  0.0000E+00  0.8630E+05  0.1136E+04  0.1643E+02  0.3605E+07  0.3458E+07  0.6045E+06  0.5727E+06  0.1410E+06  0.1413E+06  0.8438E+06  0.8945E+06  0.3540E+05  0.3742E+05  0.1017E+06  0.1206E+06  0.3353E-10  0.0000E+00  0.3955E+08  0.3142E+08  0.2792E+04  0.2099E+04  0.0000E+00  0.0000E+00  0.0000E+00  0.0000E+00  0.0000E+00  0.0000E+00  0.0000E+00  0.0000E+00  0.0000E+00  0.0000E+00  0.0000E+00  0.0000E+00  0.0000E+00  0.0000E+00  0.0000E+00  0.0000E+00  0.0000E+00  0.4531E+07  0.6933E+06  0.0000E+00  0.0000E+00
REACH    2        0     3  0.3782E+03  0.5096E+00  0.5069E+00  0.2698E-02  0.0000E+00  0.7598E+05  0.7598E+05  0.2538E+04  0.8084E+06  0.7903E+06  0.1557E+06  0.1506E+06  0.5798E+04  0.3667E+04  0.0000E+00  0.1334E+05  0.0000E+00  0.0000E+00  0.6704E+02  0.1999E+03  0.3257E+05  0.1356E+05  0.2006E+08  0.1802E+08  0.5027E+04  0.4299E+04  0.0000E+00  0.0000E+00  0.0000E+00  0.0000E+00  0.0000E+00  0.0000E+00  0.0000E+00  0.0000E+00  0.0000E+00  0.0000E+00  0.0000E+00  0.0000E+00  0.0000E+00  0.0000E+00  0.0000E+00  0.0000E+00  0.0000E+00  0.8073E+06  0.1508E+06  0.0000E+00  0.0000E+00
REACH    3        0     3  0.1486E+04  0.1817E+01  0.1782E+01  0.3488E-01  0.0000E+00  0.2575E+06  0.2575E+06  0.2493E+04  0.1198E+07  0.1115E+07  0.2538E+06  0.2246E+06  0.5322E+05  0.4193E+05  0.0000E+00  0.7337E+05  0.0000E+00  0.0000E+00  0.1507E+03  0.4445E+03  0.5005E+05  0.0000E+00  0.3756E+08  0.2217E+08  0.1832E+05  0.1580E+05  0.0000E+00  0.0000E+00  0.0000E+00  0.0000E+00  0.0000E+00  0.0000E+00  0.0000E+00  0.0000E+00  0.0000E+00  0.0000E+00  0.0000E+00  0.0000E+00  0.0000E+00  0.0000E+00  0.0000E+00  0.0000E+00  0.0000E+00  0.1230E+07  0.2251E+06  0.0000E+00  0.0000E+00
REACH    4        0     3  0.9456E+04  0.3072E+01  0.3030E+01  0.4239E-01  0.0000E+00  0.9506E+03  0.9488E+03  0.1617E+02  0.3120E+07  0.2988E+07  0.5176E+06  0.4907E+06  0.1368E+06  0.1352E+06  0.7964E+06  0.8292E+06  0.3416E+05  0.3540E+05  0.8961E+05  0.1017E+06  0.2215E-09  0.0000E+00  0.2358E+08  0.1999E+08  0.2463E+04  0.2675E+04  0.0000E+00  0.0000E+00  0.0000E+00  0.0000E+00  0.0000E+00  0.0000E+00  0.0000E+00  0.0000E+00  0.0000E+00  0.0000E+00  0.0000E+00  0.0000E+00  0.0000E+00  0.0000E+00  0.0000E+00  0.0000E+00  0.0000E+00  0.3988E+07  0.5924E+06  0.0000E+00  0.0000E+00
REACH    5        0     3  0.2643E+03  0.4791E-01  0.4707E-01  0.8421E-03  0.0000E+00  0.2066E+05  0.2063E+05  0.1106E+05  0.1937E+06  0.1861E+06  0.3627E+05  0.3435E+05  0.9594E+04  0.8609E+04  0.0000E+00  0.3927E+04  0.0000E+00  0.0000E+00  0.7354E+01  0.2168E+02  0.8131E+04  0.0000E+00  0.7412E+07  0.5887E+07  0.1379E+01  0.1123E+02  0.0000E+00  0.0000E+00  0.0000E+00  0.0000E+00  0.0000E+00  0.0000E+00  0.0000E+00  0.0000E+00  0.0000E+00  0.0000E+00  0.0000E+00  0.0000E+00  0.0000E+00  0.0000E+00  0.0000E+00  0.0000E+00  0.0000E+00  0.1986E+06  0.3437E+05  0.0000E+00  0.0000E+00
REACH    6        0     3  0.7374E+03  0.1009E+00  0.9999E-01  0.9488E-03  0.0000E+00  0.4492E+05  0.2292E+02  0.3868E+01  0.3975E+06  0.3818E+06  0.7305E+05  0.6916E+05  0.1789E+05  0.1767E+05  0.1126E+05  0.1944E+05  0.0000E+00  0.3274E+02  0.4659E+02  0.1385E+03  0.2083E+01  0.0000E+00  0.1190E+08  0.9656E+07  0.2405E+02  0.2385E+02  0.0000E+00  0.0000E+00  0.0000E+00  0.0000E+00  0.0000E+00  0.0000E+00  0.0000E+00  0.0000E+00  0.0000E+00  0.0000E+00  0.0000E+00  0.0000E+00  0.0000E+00  0.0000E+00  0.0000E+00  0.0000E+00  0.0000E+00  0.4190E+06  0.6930E+05  0.0000E+00  0.0000E+00
REACH    7        0     3  0.3091E+03  0.8371E-01  0.8254E-01  0.1171E-02  0.0000E+00  0.8535E+05  0.8535E+05  0.1290E+05  0.6383E+06  0.6167E+06  0.1196E+06  0.1138E+06  0.8476E+04  0.5838E+04  0.0000E+00  0.1458E+05  0.0000E+00  0.0000E+00  0.1228E+02  0.3634E+02  0.2587E+05  0.0000E+00  0.2479E+08  0.1956E+08  0.1096E+03  0.1016E+03  0.0000E+00  0.0000E+00  0.0000E+00  0.0000E+00  0.0000E+00  0.0000E+00  0.0000E+00  0.0000E+00  0.0000E+00  0.0000E+00  0.0000E+00  0.0000E+00  0.0000E+00  0.0000E+00  0.0000E+00  0.0000E+00  0.0000E+00  0.6371E+06  0.1138E+06  0.0000E+00  0.0000E+00
REACH    8        0     3  0.4145E+03  0.5545E-01  0.5374E-01  0.1709E-02  0.0000E+00  0.2429E+05  0.2426E+05  0.1118E+05  0.2271E+06  0.2114E+06  0.4254E+05  0.3869E+05  0.1112E+05  0.9270E+04  0.0000E+00  0.7333E+04  0.0000E+00  0.0000E+00  0.8565E+01  0.2491E+02  0.9529E+04  0.0000E+00  0.8683E+07  0.6008E+07  0.2388E+01  0.1282E+02  0.0000E+00  0.0000E+00  0.0000E+00  0.0000E+00  0.0000E+00  0.0000E+00  0.0000E+00  0.0000E+00  0.0000E+00  0.0000E+00  0.0000E+00  0.0000E+00  0.0000E+00  0.0000E+00  0.0000E+00  0.0000E+00  0.0000E+00  0.2280E+06  0.3871E+05  0.0000E+00  0.0000E+00
REACH    9        0     3  0.2583E+04  0.2389E+01  0.2361E+01  0.2727E-01  0.0000E+00  0.3607E+06  0.9548E+03  0.1523E+02  0.2189E+07  0.1989E+07  0.4285E+06  0.3738E+06  0.6499E+05  0.5935E+05  0.8670E+05  0.1968E+06  0.0000E+00  0.6513E+04  0.6596E+03  0.1959E+04  0.2571E+05  0.0000E+00  0.5073E+08  0.3103E+08  0.2033E+05  0.9224E+04  0.0000E+00  0.0000E+00  0.0000E+00  0.0000E+00  0.0000E+00  0.0000E+00  0.0000E+00  0.0000E+00  0.0000E+00  0.0000E+00  0.0000E+00  0.0000E+00  0.0000E+00  0.0000E+00  0.0000E+00  0.0000E+00  0.0000E+00  0.2252E+07  0.3758E+06  0.0000E+00  0.0000E+00
REACH   10        0     3  0.1039E+04  0.1483E+00  0.1351E+00  0.1321E-01  0.0000E+00  0.4012E+05  0.4006E+05  0.9579E+04  0.4132E+06  0.3382E+06  0.7740E+05  0.5829E+05  0.2705E+05  0.1675E+05  0.0000E+00  0.4062E+05  0.0000E+00  0.0000E+00  0.2115E+02  0.5779E+02  0.1761E+05  0.0000E+00  0.1534E+08  0.4794E+07  0.3208E+03  0.1522E+03  0.0000E+00  0.0000E+00  0.0000E+00  0.0000E+00  0.0000E+00  0.0000E+00  0.0000E+00  0.0000E+00  0.0000E+00  0.0000E+00  0.0000E+00  0.0000E+00  0.0000E+00  0.0000E+00  0.0000E+00  0.0000E+00  0.0000E+00  0.3956E+06  0.5835E+05  0.0000E+00  0.0000E+00
REACH   11        0     3  0.4033E+04  0.2534E+01  0.2511E+01  0.2273E-01  0.0000E+00  0.5217E+05  0.9795E+03  0.1350E+02  0.2442E+07  0.2276E+07  0.4536E+06  0.4115E+06  0.8336E+05  0.8405E+05  0.2374E+06  0.3198E+06  0.6513E+04  0.1488E+05  0.2022E+04  0.6020E+04  0.4877E+04  0.0000E+00  0.4012E+08  0.2832E+08  0.9413E+04  0.3414E+04  0.0000E+00  0.0000E+00  0.0000E+00  0.0000E+00  0.0000E+00  0.0000E+00  0.0000E+00  0.0000E+00  0.0000E+00  0.0000E+00  0.0000E+00  0.0000E+00  0.0000E+00  0.0000E+00  0.0000E+00  0.0000E+00  0.0000E+00  0.2694E+07  0.4175E+06  0.0000E+00  0.0000E+00
REACH   12        0     3  0.4536E+04  0.2514E+01  0.2493E+01  0.2171E-01  0.0000E+00  0.3112E+04  0.1134E+04  0.1467E+02  0.2291E+07  0.2211E+07  0.4142E+06  0.3959E+06  0.8539E+05  0.8595E+05  0.3210E+06  0.3502E+06  0.1488E+05  0.1718E+05  0.6022E+04  0.1659E+05  0.5778E+02  0.0000E+00  0.2864E+08  0.2488E+08  0.3415E+04  0.3936E+04  0.0000E+00  0.0000E+00  0.0000E+00  0.0000E+00  0.0000E+00  0.0000E+00  0.0000E+00  0.0000E+00  0.0000E+00  0.0000E+00  0.0000E+00  0.0000E+00  0.0000E+00  0.0000E+00  0.0000E+00  0.0000E+00  0.0000E+00  0.2665E+07  0.4125E+06  0.0000E+00  0.0000E+00
REACH   13        0     3  0.3339E+03  0.3035E-02  0.2685E-02  0.3501E-03  0.0000E+00  0.2026E+04  0.2026E+04  0.6452E+04  0.1720E+05  0.1414E+05  0.3221E+04  0.2505E+04  0.1465E+04  0.1087E+04  0.0000E+00  0.1137E+04  0.0000E+00  0.0000E+00  0.4354E+00  0.1154E+01  0.7468E+03  0.0000E+00  0.6519E+06  0.2680E+06  0.0000E+00  0.6402E+00  0.0000E+00  0.0000E+00  0.0000E+00  0.0000E+00  0.0000E+00  0.0000E+00  0.0000E+00  0.0000E+00  0.0000E+00  0.0000E+00  0.0000E+00  0.0000E+00  0.0000E+00  0.0000E+00  0.0000E+00  0.0000E+00  0.0000E+00  0.1636E+05  0.2506E+04  0.0000E+00  0.0000E+00
REACH   14        0     3  0.4614E+04  0.2493E+01  0.2484E+01  0.9222E-02  0.0000E+00  0.1225E+04  0.1056E+04  0.1358E+02  0.2213E+07  0.2180E+07  0.3961E+06  0.3888E+06  0.8621E+05  0.8652E+05  0.3502E+06  0.3612E+06  0.1718E+05  0.1827E+05  0.1659E+05  0.2112E+05  0.5237E+02  0.0000E+00  0.2492E+08  0.2344E+08  0.3936E+04  0.2853E+04  0.0000E+00  0.0000E+00  0.0000E+00  0.0000E+00  0.0000E+00  0.0000E+00  0.0000E+00  0.0000E+00  0.0000E+00  0.0000E+00  0.0000E+00  0.0000E+00  0.0000E+00  0.0000E+00  0.0000E+00  0.0000E+00  0.0000E+00  0.2646E+07  0.4099E+06  0.0000E+00  0.0000E+00
REACH   15        0     3  0.8564E+04  0.3094E+01  0.2970E+01  0.1246E+00  0.0000E+00  0.2203E+04  0.9276E+03  0.1685E+02  0.3202E+07  0.2738E+07  0.5590E+06  0.4485E+06  0.1160E+06  0.1188E+06  0.5544E+06  0.7769E+06  0.2421E+05  0.3413E+05  0.3712E+05  0.8948E+05  0.4950E+03  0.0000E+00  0.3270E+08  0.1393E+08  0.4099E+04  0.2352E+04  0.0000E+00  0.0000E+00  0.0000E+00  0.0000E+00  0.0000E+00  0.0000E+00  0.0000E+00  0.0000E+00  0.0000E+00  0.0000E+00  0.0000E+00  0.0000E+00  0.0000E+00  0.0000E+00  0.0000E+00  0.0000E+00  0.0000E+00  0.3668E+07  0.5379E+06  0.0000E+00  0.0000E+00
REACH   16        0     3  0.4974E+04  0.2485E+01  0.2463E+01  0.2118E-01  0.0000E+00  0.1251E+04  0.1047E+04  0.1297E+02  0.2182E+07  0.2113E+07  0.3891E+06  0.3736E+06  0.8691E+05  0.8743E+05  0.3613E+06  0.3821E+06  0.1827E+05  0.2036E+05  0.2112E+05  0.3141E+05  0.2752E+02  0.0000E+00  0.2348E+08  0.2043E+08  0.2853E+04  0.3707E+04  0.0000E+00  0.0000E+00  0.0000E+00  0.0000E+00  0.0000E+00  0.0000E+00  0.0000E+00  0.0000E+00  0.0000E+00  0.0000E+00  0.0000E+00  0.0000E+00  0.0000E+00  0.0000E+00  0.0000E+00  0.0000E+00  0.0000E+00  0.2603E+07  0.4050E+06  0.0000E+00  0.0000E+00
REACH   17        0     3  0.2471E+04  0.6324E+00  0.6276E+00  0.4754E-02  0.0000E+00  0.1595E+03  0.1460E+03  0.1015E+02  0.1101E+07  0.1078E+07  0.1886E+06  0.1834E+06  0.2683E+05  0.2667E+05  0.1615E+06  0.1723E+06  0.3464E+04  0.3847E+04  0.2343E+04  0.5714E+04  0.3067E+00  0.0000E+00  0.1323E+08  0.1187E+08  0.2874E+03  0.3923E+03  0.0000E+00  0.0000E+00  0.0000E+00  0.0000E+00  0.0000E+00  0.0000E+00  0.0000E+00  0.0000E+00  0.0000E+00  0.0000E+00  0.0000E+00  0.0000E+00  0.0000E+00  0.0000E+00  0.0000E+00  0.0000E+00  0.0000E+00  0.1281E+07  0.1891E+06  0.0000E+00  0.0000E+00
REACH   18        0     3  0.2198E+03  0.6195E-03  0.5473E-03  0.7213E-04  0.0000E+00  0.1478E+03  0.1478E+03  0.3252E+04  0.1615E+04  0.1280E+04  0.3024E+03  0.2198E+03  0.3291E+03  0.2616E+03  0.0000E+00  0.1597E+03  0.0000E+00  0.0000E+00  0.8866E-01  0.2343E+00  0.7778E+02  0.0000E+00  0.6110E+05  0.1688E+05  0.0000E+00  0.1309E+00  0.0000E+00  0.0000E+00  0.0000E+00  0.0000E+00  0.0000E+00  0.0000E+00  0.0000E+00  0.0000E+00  0.0000E+00  0.0000E+00  0.0000E+00  0.0000E+00  0.0000E+00  0.0000E+00  0.0000E+00  0.0000E+00  0.0000E+00  0.1702E+04  0.2200E+03  0.0000E+00  0.0000E+00
REACH   19        0     3  0.2425E+04  0.6450E+00  0.6324E+00  0.1260E-01  0.0000E+00  0.3747E+03  0.1591E+03  0.1143E+02  0.1156E+07  0.1101E+07  0.2012E+06  0.1886E+06  0.2786E+05  0.2683E+05  0.1376E+06  0.1615E+06  0.2965E+04  0.3464E+04  0.7969E+03  0.2343E+04  0.8633E+02  0.0000E+00  0.1668E+08  0.1323E+08  0.4393E+03  0.2874E+03  0.0000E+00  0.0000E+00  0.0000E+00  0.0000E+00  0.0000E+00  0.0000E+00  0.0000E+00  0.0000E+00  0.0000E+00  0.0000E+00  0.0000E+00  0.0000E+00  0.0000E+00  0.0000E+00  0.0000E+00  0.0000E+00  0.0000E+00  0.1293E+07  0.1910E+06  0.0000E+00  0.0000E+00
REACH   20        0     3  0.3435E+03  0.3103E-03  0.5530E-04  0.2550E-03  0.0000E+00  0.5713E+02  0.5713E+02  0.6452E+04  0.6750E+03  0.1090E+03  0.1264E+03  0.1872E+02  0.1808E+03  0.2985E+02  0.0000E+00  0.1357E+02  0.0000E+00  0.0000E+00  0.4827E-01  0.2558E-01  0.3423E+02  0.0000E+00  0.2552E+05  0.1433E+04  0.0000E+00  0.1322E-01  0.0000E+00  0.0000E+00  0.0000E+00  0.0000E+00  0.0000E+00  0.0000E+00  0.0000E+00  0.0000E+00  0.0000E+00  0.0000E+00  0.0000E+00  0.0000E+00  0.0000E+00  0.0000E+00  0.0000E+00  0.0000E+00  0.0000E+00  0.1525E+03  0.1875E+02  0.0000E+00  0.0000E+00
REACH   21        0     3  0.1644E+04  0.6707E+00  0.6443E+00  0.2647E-01  0.0000E+00  0.1258E+06  0.1558E+03  0.1267E+02  0.1295E+07  0.1154E+07  0.2356E+06  0.2009E+06  0.2953E+05  0.2744E+05  0.6657E+05  0.1376E+06  0.0000E+00  0.2965E+04  0.2768E+03  0.7968E+03  0.4802E+02  0.0000E+00  0.2946E+08  0.1661E+08  0.4000E+04  0.4393E+03  0.0000E+00  0.0000E+00  0.0000E+00  0.0000E+00  0.0000E+00  0.0000E+00  0.0000E+00  0.0000E+00  0.0000E+00  0.0000E+00  0.0000E+00  0.0000E+00  0.0000E+00  0.0000E+00  0.0000E+00  0.0000E+00  0.0000E+00  0.1322E+07  0.2017E+06  0.0000E+00  0.0000E+00
REACH   22        0     3  0.6718E+03  0.6854E+00  0.6703E+00  0.1510E-01  0.0000E+00  0.1257E+06  0.1257E+06  0.9169E+04  0.1384E+07  0.1294E+07  0.2607E+06  0.2354E+06  0.3736E+05  0.2929E+05  0.0000E+00  0.6657E+05  0.0000E+00  0.0000E+00  0.9436E+02  0.2767E+03  0.5685E+05  0.0000E+00  0.4570E+08  0.2943E+08  0.4792E+04  0.4000E+04  0.0000E+00  0.0000E+00  0.0000E+00  0.0000E+00  0.0000E+00  0.0000E+00  0.0000E+00  0.0000E+00  0.0000E+00  0.0000E+00  0.0000E+00  0.0000E+00  0.0000E+00  0.0000E+00  0.0000E+00  0.0000E+00  0.0000E+00  0.1390E+07  0.2357E+06  0.0000E+00  0.0000E+00
REACH   23        0     3  0.3564E+03  0.1333E-03  0.0000E+00  0.1333E-03  0.0000E+00  0.1328E+02  0.0000E+00  0.0000E+00  0.1779E+03  0.0000E+00  0.3330E+02  0.0000E+00  0.6933E+02  0.0000E+00  0.0000E+00  0.0000E+00  0.0000E+00  0.0000E+00  0.1908E-01  0.0000E+00  0.9887E+01  0.0000E+00  0.6723E+04  0.0000E+00  0.0000E+00  0.0000E+00  0.0000E+00  0.0000E+00  0.0000E+00  0.0000E+00  0.0000E+00  0.0000E+00  0.0000E+00  0.0000E+00  0.0000E+00  0.0000E+00  0.0000E+00  0.0000E+00  0.0000E+00  0.0000E+00  0.0000E+00  0.0000E+00  0.0000E+00  0.0000E+00  0.0000E+00  0.0000E+00  0.0000E+00
REACH    1        0     4  0.9887E+04  0.2755E+01  0.2640E+01  0.1142E+00  0.0000E+00  0.3933E+04  0.5642E+03  0.2696E+02  0.3940E+07  0.3740E+07  0.6158E+06  0.5744E+06  0.4863E+05  0.5039E+05  0.1173E+07  0.1224E+07  0.4721E+05  0.6571E+05  0.1184E+06  0.1429E+06  0.1242E-09  0.0000E+00  0.2519E+08  0.1898E+08  0.2227E+05  0.1406E+05  0.0000E+00  0.0000E+00  0.0000E+00  0.0000E+00  0.0000E+00  0.0000E+00  0.0000E+00  0.0000E+00  0.0000E+00  0.0000E+00  0.0000E+00  0.0000E+00  0.0000E+00  0.0000E+00  0.0000E+00  0.0000E+00  0.0000E+00  0.5079E+07  0.7173E+06  0.0000E+00  0.0000E+00
REACH    2        0     4  0.3782E+03  0.2084E+00  0.2024E+00  0.6031E-02  0.0000E+00  0.4858E+05  0.4858E+05  0.1427E+05  0.2646E+06  0.2499E+06  0.5463E+05  0.5050E+05  0.4025E+04  0.2877E+04  0.0000E+00  0.8893E+04  0.0000E+00  0.0000E+00  0.2102E+02  0.6173E+02  0.1074E+05  0.0000E+00  0.6559E+07  0.4867E+07  0.8298E+03  0.3789E+03  0.0000E+00  0.0000E+00  0.0000E+00  0.0000E+00  0.0000E+00  0.0000E+00  0.0000E+00  0.0000E+00  0.0000E+00  0.0000E+00  0.0000E+00  0.0000E+00  0.0000E+00  0.0000E+00  0.0000E+00  0.0000E+00  0.0000E+00  0.2617E+06  0.5056E+05  0.0000E+00  0.0000E+00
REACH    3        0     4  0.1486E+04  0.7029E-02  0.0000E+00  0.7029E-02  0.0000E+00  0.3587E-06  0.0000E+00  0.0000E+00  0.4065E+02  0.0000E+00  0.9836E+01  0.0000E+00  0.1452E+03  0.0000E+00  0.0000E+00  0.0000E+00  0.0000E+00  0.0000E+00  0.1241E-01  0.0000E+00  0.1323E+01  0.0000E+00  0.0000E+00  0.0000E+00  0.2088E+03  0.0000E+00  0.0000E+00  0.0000E+00  0.0000E+00  0.0000E+00  0.0000E+00  0.0000E+00  0.0000E+00  0.0000E+00  0.0000E+00  0.0000E+00  0.0000E+00  0.0000E+00  0.0000E+00  0.0000E+00  0.0000E+00  0.0000E+00  0.0000E+00  0.0000E+00  0.0000E+00  0.0000E+00  0.0000E+00
REACH    4        0     4  0.9456E+04  0.1997E+01  0.1927E+01  0.7016E-01  0.0000E+00  0.3693E+03  0.3683E+03  0.1599E+02  0.4128E+07  0.3926E+07  0.6546E+06  0.6130E+06  0.4815E+05  0.4543E+05  0.1106E+07  0.1173E+07  0.4731E+05  0.4721E+05  0.9474E+05  0.1183E+06  0.2955E-09  0.0000E+00  0.3256E+08  0.2495E+08  0.4223E+04  0.3736E+04  0.0000E+00  0.0000E+00  0.0000E+00  0.0000E+00  0.0000E+00  0.0000E+00  0.0000E+00  0.0000E+00  0.0000E+00  0.0000E+00  0.0000E+00  0.0000E+00  0.0000E+00  0.0000E+00  0.0000E+00  0.0000E+00  0.0000E+00  0.5191E+07  0.7314E+06  0.0000E+00  0.0000E+00
REACH    5        0     4  0.2643E+03  0.1290E+00  0.1253E+00  0.3674E-02  0.0000E+00  0.8536E+05  0.8536E+05  0.2855E+05  0.8785E+06  0.8481E+06  0.1648E+06  0.1567E+06  0.1065E+05  0.6926E+04  0.0000E+00  0.1937E+05  0.0000E+00  0.0000E+00  0.1734E+02  0.5137E+02  0.3557E+05  0.0000E+00  0.2409E+08  0.1888E+08  0.5035E+03  0.2430E+03  0.0000E+00  0.0000E+00  0.0000E+00  0.0000E+00  0.0000E+00  0.0000E+00  0.0000E+00  0.0000E+00  0.0000E+00  0.0000E+00  0.0000E+00  0.0000E+00  0.0000E+00  0.0000E+00  0.0000E+00  0.0000E+00  0.0000E+00  0.8744E+06  0.1568E+06  0.0000E+00  0.0000E+00
REACH    6        0     4  0.7374E+03  0.2759E+00  0.2704E+00  0.5484E-02  0.0000E+00  0.1915E+06  0.5470E+02  0.1127E+02  0.1826E+07  0.1752E+07  0.3360E+06  0.3174E+06  0.1126E+05  0.1095E+05  0.6076E+05  0.1005E+06  0.0000E+00  0.7738E+03  0.1120E+03  0.3324E+03  0.1016E-11  0.0000E+00  0.3717E+08  0.2961E+08  0.5242E+03  0.2366E+03  0.0000E+00  0.0000E+00  0.0000E+00  0.0000E+00  0.0000E+00  0.0000E+00  0.0000E+00  0.0000E+00  0.0000E+00  0.0000E+00  0.0000E+00  0.0000E+00  0.0000E+00  0.0000E+00  0.0000E+00  0.0000E+00  0.0000E+00  0.1865E+07  0.3178E+06  0.0000E+00  0.0000E+00
REACH    7        0     4  0.3091E+03  0.8376E+00  0.8263E+00  0.1128E-01  0.0000E+00  0.3564E+04  0.3564E+04  0.3430E+03  0.1443E+05  0.1412E+05  0.2821E+04  0.2734E+04  0.3180E+04  0.3123E+04  0.0000E+00  0.2180E+03  0.0000E+00  0.0000E+00  0.2916E+00  0.8699E+00  0.1056E+03  0.0000E+00  0.2833E+06  0.2423E+06  0.2542E+05  0.1851E+05  0.0000E+00  0.0000E+00  0.0000E+00  0.0000E+00  0.0000E+00  0.0000E+00  0.0000E+00  0.0000E+00  0.0000E+00  0.0000E+00  0.0000E+00  0.0000E+00  0.0000E+00  0.0000E+00  0.0000E+00  0.0000E+00  0.0000E+00  0.1746E+05  0.2735E+04  0.0000E+00  0.0000E+00
REACH    8        0     4  0.4145E+03  0.1569E+00  0.1484E+00  0.8435E-02  0.0000E+00  0.1061E+06  0.1061E+06  0.2950E+05  0.1045E+07  0.9784E+06  0.1971E+06  0.1793E+06  0.1141E+05  0.4288E+04  0.0000E+00  0.4139E+05  0.0000E+00  0.0000E+00  0.2070E+02  0.6066E+02  0.4226E+05  0.0000E+00  0.2848E+08  0.1828E+08  0.7560E+03  0.2139E+03  0.0000E+00  0.0000E+00  0.0000E+00  0.0000E+00  0.0000E+00  0.0000E+00  0.0000E+00  0.0000E+00  0.0000E+00  0.0000E+00  0.0000E+00  0.0000E+00  0.0000E+00  0.0000E+00  0.0000E+00  0.0000E+00  0.0000E+00  0.1024E+07  0.1794E+06  0.0000E+00  0.0000E+00
REACH    9        0     4  0.2583E+04  0.4786E+00  0.4317E+00  0.4689E-01  0.0000E+00  0.1707E+06  0.6518E+02  0.8690E+01  0.1574E+07  0.1237E+07  0.3010E+06  0.2105E+06  0.2086E+05  0.2834E+04  0.8893E+04  0.3899E+05  0.0000E+00  0.6180E+03  0.9901E+02  0.2638E+03  0.5369E+05  0.0000E+00  0.3952E+08  0.8701E+07  0.1481E+04  0.1077E+03  0.0000E+00  0.0000E+00  0.0000E+00  0.0000E+00  0.0000E+00  0.0000E+00  0.0000E+00  0.0000E+00  0.0000E+00  0.0000E+00  0.0000E+00  0.0000E+00  0.0000E+00  0.0000E+00  0.0000E+00  0.0000E+00  0.0000E+00  0.1279E+07  0.2108E+06  0.0000E+00  0.0000E+00
REACH   10        0     4  0.1039E+04  0.4154E+00  0.3876E+00  0.2781E-01  0.0000E+00  0.1821E+06  0.1796E+06  0.2239E+05  0.1919E+07  0.1620E+07  0.3633E+06  0.2807E+06  0.2471E+05  0.2179E+04  0.0000E+00  0.2059E+06  0.0000E+00  0.0000E+00  0.5226E+02  0.1488E+03  0.7775E+05  0.0000E+00  0.5049E+08  0.1521E+08  0.1617E+04  0.2850E+03  0.0000E+00  0.0000E+00  0.0000E+00  0.0000E+00  0.0000E+00  0.0000E+00  0.0000E+00  0.0000E+00  0.0000E+00  0.0000E+00  0.0000E+00  0.0000E+00  0.0000E+00  0.0000E+00  0.0000E+00  0.0000E+00  0.0000E+00  0.1828E+07  0.2808E+06  0.0000E+00  0.0000E+00
REACH   11        0     4  0.4033E+04  0.9283E+00  0.9027E+00  0.2559E-01  0.0000E+00  0.2321E+06  0.1794E+03  0.9771E+01  0.3403E+07  0.2978E+07  0.5950E+06  0.4893E+06  0.1086E+05  0.9463E+04  0.2449E+06  0.4962E+06  0.6180E+03  0.2482E+04  0.4269E+03  0.1245E+04  0.2209E+05  0.0000E+00  0.3803E+08  0.1615E+08  0.1098E+04  0.2087E+03  0.0000E+00  0.0000E+00  0.0000E+00  0.0000E+00  0.0000E+00  0.0000E+00  0.0000E+00  0.0000E+00  0.0000E+00  0.0000E+00  0.0000E+00  0.0000E+00  0.0000E+00  0.0000E+00  0.0000E+00  0.0000E+00  0.0000E+00  0.3487E+07  0.4906E+06  0.0000E+00  0.0000E+00
REACH   12        0     4  0.4536E+04  0.9227E+00  0.9048E+00  0.1798E-01  0.0000E+00  0.9223E+04  0.2055E+03  0.1096E+02  0.3056E+07  0.2869E+07  0.5028E+06  0.4604E+06  0.1246E+05  0.1161E+05  0.5038E+06  0.5999E+06  0.2482E+04  0.6044E+04  0.1249E+04  0.3696E+04  0.3545E-11  0.0000E+00  0.1706E+08  0.1191E+08  0.6113E+03  0.2091E+03  0.0000E+00  0.0000E+00  0.0000E+00  0.0000E+00  0.0000E+00  0.0000E+00  0.0000E+00  0.0000E+00  0.0000E+00  0.0000E+00  0.0000E+00  0.0000E+00  0.0000E+00  0.0000E+00  0.0000E+00  0.0000E+00  0.0000E+00  0.3486E+07  0.4641E+06  0.0000E+00  0.0000E+00
REACH   13        0     4  0.3339E+03  0.1038E-01  0.9298E-02  0.1081E-02  0.0000E+00  0.9148E+04  0.9044E+04  0.1333E+05  0.9241E+05  0.7721E+05  0.1730E+05  0.1351E+05  0.4040E+04  0.2192E+04  0.0000E+00  0.7536E+04  0.0000E+00  0.0000E+00  0.1428E+01  0.3857E+01  0.3858E+04  0.0000E+00  0.2481E+07  0.9137E+06  0.1027E+03  0.7793E+02  0.0000E+00  0.0000E+00  0.0000E+00  0.0000E+00  0.0000E+00  0.0000E+00  0.0000E+00  0.0000E+00  0.0000E+00  0.0000E+00  0.0000E+00  0.0000E+00  0.0000E+00  0.0000E+00  0.0000E+00  0.0000E+00  0.0000E+00  0.8693E+05  0.1352E+05  0.0000E+00  0.0000E+00
REACH   14        0     4  0.4614E+04  0.9090E+00  0.9014E+00  0.7608E-02  0.0000E+00  0.2055E+03  0.2012E+03  0.1065E+02  0.2869E+07  0.2796E+07  0.4604E+06  0.4444E+06  0.1204E+05  0.1161E+05  0.5999E+06  0.6375E+06  0.6044E+04  0.7427E+04  0.3696E+04  0.1103E+05  0.1560E-11  0.0000E+00  0.1191E+08  0.1029E+08  0.3394E+03  0.2084E+03  0.0000E+00  0.0000E+00  0.0000E+00  0.0000E+00  0.0000E+00  0.0000E+00  0.0000E+00  0.0000E+00  0.0000E+00  0.0000E+00  0.0000E+00  0.0000E+00  0.0000E+00  0.0000E+00  0.0000E+00  0.0000E+00  0.0000E+00  0.3452E+07  0.4554E+06  0.0000E+00  0.0000E+00
REACH   15        0     4  0.8564E+04  0.2079E+01  0.1722E+01  0.3568E+00  0.0000E+00  0.3768E+03  0.3146E+03  0.1880E+02  0.2978E+07  0.2376E+07  0.4703E+06  0.3372E+06  0.3835E+05  0.3673E+05  0.7743E+06  0.1005E+07  0.1998E+05  0.4653E+05  0.3283E+05  0.9441E+05  0.6751E-10  0.0000E+00  0.1096E+08  0.2953E+07  0.1576E+05  0.3856E+04  0.0000E+00  0.0000E+00  0.0000E+00  0.0000E+00  0.0000E+00  0.0000E+00  0.0000E+00  0.0000E+00  0.0000E+00  0.0000E+00  0.0000E+00  0.0000E+00  0.0000E+00  0.0000E+00  0.0000E+00  0.0000E+00  0.0000E+00  0.3465E+07  0.4316E+06  0.0000E+00  0.0000E+00
REACH   16        0     4  0.4974E+04  0.9219E+00  0.9019E+00  0.2006E-01  0.0000E+00  0.2012E+03  0.1931E+03  0.1032E+02  0.2796E+07  0.2628E+07  0.4444E+06  0.4076E+06  0.1327E+05  0.1300E+05  0.6375E+06  0.7153E+06  0.7427E+04  0.1801E+05  0.1103E+05  0.3208E+05  0.6264E-10  0.0000E+00  0.1029E+08  0.7274E+07  0.8050E+03  0.2085E+03  0.0000E+00  0.0000E+00  0.0000E+00  0.0000E+00  0.0000E+00  0.0000E+00  0.0000E+00  0.0000E+00  0.0000E+00  0.0000E+00  0.0000E+00  0.0000E+00  0.0000E+00  0.0000E+00  0.0000E+00  0.0000E+00  0.0000E+00  0.3374E+07  0.4397E+06  0.0000E+00  0.0000E+00
REACH   17        0     4  0.2471E+04  0.1079E+01  0.1060E+01  0.1891E-01  0.0000E+00  0.1936E+03  0.1836E+03  0.2531E+02  0.3568E+06  0.3507E+06  0.6422E+05  0.6267E+05  0.1628E+05  0.1603E+05  0.5538E+05  0.5900E+05  0.1884E+04  0.1974E+04  0.2531E+03  0.7569E+03  0.9517E+00  0.0000E+00  0.4114E+07  0.3686E+07  0.1267E+05  0.1194E+05  0.0000E+00  0.0000E+00  0.0000E+00  0.0000E+00  0.0000E+00  0.0000E+00  0.0000E+00  0.0000E+00  0.0000E+00  0.0000E+00  0.0000E+00  0.0000E+00  0.0000E+00  0.0000E+00  0.0000E+00  0.0000E+00  0.0000E+00  0.4277E+06  0.6343E+05  0.0000E+00  0.0000E+00
REACH   18        0     4  0.2198E+03  0.1345E-01  0.9831E-02  0.3615E-02  0.0000E+00  0.7791E-06  0.4935E-06  0.1925E-04  0.6111E-03  0.2168E-03  0.1833E-02  0.5845E-03  0.9195E+03  0.6804E+03  0.0000E+00  0.5876E+00  0.0000E+00  0.0000E+00  0.6117E-03  0.7772E-03  0.2798E-10  0.0000E+00  0.0000E+00  0.0000E+00  0.3793E+03  0.2649E+03  0.0000E+00  0.0000E+00  0.0000E+00  0.0000E+00  0.0000E+00  0.0000E+00  0.0000E+00  0.0000E+00  0.0000E+00  0.0000E+00  0.0000E+00  0.0000E+00  0.0000E+00  0.0000E+00  0.0000E+00  0.0000E+00  0.0000E+00  0.6810E+03  0.1362E-02  0.0000E+00  0.0000E+00
REACH   19        0     4  0.2425E+04  0.1107E+01  0.1064E+01  0.4316E-01  0.0000E+00  0.2747E+03  0.1869E+03  0.2675E+02  0.3715E+06  0.3568E+06  0.6803E+05  0.6422E+05  0.1638E+05  0.1582E+05  0.4706E+05  0.5538E+05  0.1166E+04  0.1884E+04  0.8495E+02  0.2531E+03  0.1037E+02  0.0000E+00  0.5317E+07  0.4113E+07  0.1459E+05  0.1222E+05  0.0000E+00  0.0000E+00  0.0000E+00  0.0000E+00  0.0000E+00  0.0000E+00  0.0000E+00  0.0000E+00  0.0000E+00  0.0000E+00  0.0000E+00  0.0000E+00  0.0000E+00  0.0000E+00  0.0000E+00  0.0000E+00  0.0000E+00  0.4299E+06  0.6447E+05  0.0000E+00  0.0000E+00
REACH   20        0     4  0.3435E+03  0.7586E-01  0.6356E-01  0.1230E-01  0.0000E+00  0.3711E+02  0.3711E+02  0.2075E+02  0.9295E+02  0.8740E+02  0.1817E+02  0.1657E+02  0.3475E+04  0.2975E+04  0.0000E+00  0.5654E+01  0.0000E+00  0.0000E+00  0.6189E-02  0.1640E-01  0.4212E+01  0.0000E+00  0.3514E+04  0.2234E+04  0.2347E+04  0.1111E+04  0.0000E+00  0.0000E+00  0.0000E+00  0.0000E+00  0.0000E+00  0.0000E+00  0.0000E+00  0.0000E+00  0.0000E+00  0.0000E+00  0.0000E+00  0.0000E+00  0.0000E+00  0.0000E+00  0.0000E+00  0.0000E+00  0.0000E+00  0.3068E+04  0.1658E+02  0.0000E+00  0.0000E+00
REACH   21        0     4  0.1644E+04  0.1043E+01  0.9647E+00  0.7808E-01  0.0000E+00  0.1199E+06  0.1574E+03  0.2710E+02  0.4116E+06  0.3713E+06  0.7913E+05  0.6797E+05  0.1111E+05  0.1030E+05  0.2138E+05  0.4705E+05  0.0000E+00  0.1166E+04  0.2866E+02  0.8483E+02  0.8481E-10  0.0000E+00  0.1033E+08  0.5310E+07  0.1624E+05  0.1115E+05  0.0000E+00  0.0000E+00  0.0000E+00  0.0000E+00  0.0000E+00  0.0000E+00  0.0000E+00  0.0000E+00  0.0000E+00  0.0000E+00  0.0000E+00  0.0000E+00  0.0000E+00  0.0000E+00  0.0000E+00  0.0000E+00  0.0000E+00  0.4298E+06  0.6806E+05  0.0000E+00  0.0000E+00
REACH   22        0     4  0.6718E+03  0.9007E+00  0.8596E+00  0.4106E-01  0.0000E+00  0.1199E+06  0.1199E+06  0.7526E+04  0.4375E+06  0.4116E+06  0.8715E+05  0.7913E+05  0.3940E+04  0.3094E+04  0.0000E+00  0.2137E+05  0.0000E+00  0.0000E+00  0.9630E+01  0.2866E+02  0.1372E+05  0.0000E+00  0.1692E+08  0.1033E+08  0.2274E+05  0.1106E+05  0.0000E+00  0.0000E+00  0.0000E+00  0.0000E+00  0.0000E+00  0.0000E+00  0.0000E+00  0.0000E+00  0.0000E+00  0.0000E+00  0.0000E+00  0.0000E+00  0.0000E+00  0.0000E+00  0.0000E+00  0.0000E+00  0.0000E+00  0.4361E+06  0.7916E+05  0.0000E+00  0.0000E+00
REACH   23        0     4  0.3564E+03  0.9000E-01  0.7570E-01  0.1430E-01  0.0000E+00  0.5945E-06  0.1982E-06  0.5237E-05  0.9332E-03  0.8068E-04  0.2800E-02  0.3671E-03  0.3767E+04  0.3325E+04  0.0000E+00  0.1367E+01  0.0000E+00  0.0000E+00  0.9342E-03  0.3006E-03  0.1093E-09  0.0000E+00  0.0000E+00  0.0000E+00  0.2556E+04  0.2068E+04  0.0000E+00  0.0000E+00  0.0000E+00  0.0000E+00  0.0000E+00  0.0000E+00  0.0000E+00  0.0000E+00  0.0000E+00  0.0000E+00  0.0000E+00  0.0000E+00  0.0000E+00  0.0000E+00  0.0000E+00  0.0000E+00  0.0000E+00  0.3326E+04  0.6677E-03  0.0000E+00  0.0000E+00
REACH    1        0     5  0.9887E+04  0.7194E+01  0.6938E+01  0.2561E+00  0.0000E+00  0.5287E+05  0.1796E+04  0.5434E+02  0.1422E+07  0.1363E+07  0.2224E+06  0.2094E+06  0.5239E+05  0.5050E+05  0.4558E+06  0.4854E+06  0.2643E+05  0.2824E+05  0.2158E+05  0.3099E+05  0.2429E+03  0.0000E+00  0.1657E+08  0.1283E+08  0.1189E+06  0.1128E+06  0.0000E+00  0.0000E+00  0.0000E+00  0.0000E+00  0.0000E+00  0.0000E+00  0.0000E+00  0.0000E+00  0.0000E+00  0.0000E+00  0.0000E+00  0.0000E+00  0.0000E+00  0.0000E+00  0.0000E+00  0.0000E+00  0.0000E+00  0.1927E+07  0.2404E+06  0.0000E+00  0.0000E+00
REACH    2        0     5  0.3782E+03  0.4418E-01  0.2413E-01  0.2005E-01  0.0000E+00  0.1337E+04  0.1337E+04  0.2454E+04  0.6292E+04  0.5433E+04  0.1238E+04  0.1006E+04  0.1463E+03  0.6135E+02  0.0000E+00  0.4690E+03  0.0000E+00  0.0000E+00  0.4798E+00  0.1341E+01  0.2180E+03  0.0000E+00  0.2910E+06  0.1245E+06  0.1161E+04  0.4029E+03  0.0000E+00  0.0000E+00  0.0000E+00  0.0000E+00  0.0000E+00  0.0000E+00  0.0000E+00  0.0000E+00  0.0000E+00  0.0000E+00  0.0000E+00  0.0000E+00  0.0000E+00  0.0000E+00  0.0000E+00  0.0000E+00  0.0000E+00  0.5963E+04  0.1007E+04  0.0000E+00  0.0000E+00
REACH    3        0     5  0.1486E+04  0.9400E-01  0.1550E-01  0.7850E-01  0.0000E+00  0.1698E+04  0.1698E+04  0.2893E+04  0.2410E+04  0.1209E+04  0.5843E+03  0.2450E+03  0.8210E+03  0.6465E+02  0.0000E+00  0.2774E+03  0.0000E+00  0.0000E+00  0.2804E+00  0.5135E+00  0.7297E+02  0.0000E+00  0.8690E+05  0.8536E+04  0.2524E+04  0.1422E+03  0.0000E+00  0.0000E+00  0.0000E+00  0.0000E+00  0.0000E+00  0.0000E+00  0.0000E+00  0.0000E+00  0.0000E+00  0.0000E+00  0.0000E+00  0.0000E+00  0.0000E+00  0.0000E+00  0.0000E+00  0.0000E+00  0.0000E+00  0.1551E+04  0.2455E+03  0.0000E+00  0.0000E+00
REACH    4        0     5  0.9456E+04  0.6331E+01  0.6109E+01  0.2219E+00  0.0000E+00  0.1347E+04  0.1348E+04  0.4596E+02  0.1201E+07  0.1148E+07  0.1819E+06  0.1713E+06  0.5010E+05  0.4764E+05  0.4315E+06  0.4510E+06  0.2464E+05  0.2643E+05  0.1448E+05  0.2156E+05  0.2175E+01  0.0000E+00  0.8312E+07  0.6815E+07  0.9559E+05  0.1011E+06  0.0000E+00  0.0000E+00  0.0000E+00  0.0000E+00  0.0000E+00  0.0000E+00  0.0000E+00  0.0000E+00  0.0000E+00  0.0000E+00  0.0000E+00  0.0000E+00  0.0000E+00  0.0000E+00  0.0000E+00  0.0000E+00  0.0000E+00  0.1673E+07  0.1928E+06  0.0000E+00  0.0000E+00
REACH    5        0     5  0.2643E+03  0.6269E+00  0.6144E+00  0.1251E-01  0.0000E+00  0.2012E+05  0.2012E+05  0.1795E+04  0.9943E+05  0.9780E+05  0.1889E+05  0.1841E+05  0.2723E+04  0.2620E+04  0.0000E+00  0.1304E+04  0.0000E+00  0.0000E+00  0.1915E+01  0.5729E+01  0.2587E+04  0.7671E+01  0.3977E+07  0.3483E+07  0.1899E+05  0.1055E+05  0.0000E+00  0.0000E+00  0.0000E+00  0.0000E+00  0.0000E+00  0.0000E+00  0.0000E+00  0.0000E+00  0.0000E+00  0.0000E+00  0.0000E+00  0.0000E+00  0.0000E+00  0.0000E+00  0.0000E+00  0.0000E+00  0.0000E+00  0.1017E+06  0.1842E+05  0.0000E+00  0.0000E+00
REACH    6        0     5  0.7374E+03  0.1333E+01  0.1313E+01  0.2069E-01  0.0000E+00  0.4909E+05  0.3510E+03  0.4809E+02  0.2042E+06  0.2007E+06  0.3893E+05  0.3796E+05  0.6783E+04  0.6461E+04  0.4004E+04  0.6466E+04  0.0000E+00  0.1061E+02  0.1267E+02  0.3793E+02  0.7671E+01  0.2175E+01  0.6918E+07  0.6120E+07  0.2379E+05  0.2322E+05  0.0000E+00  0.0000E+00  0.0000E+00  0.0000E+00  0.0000E+00  0.0000E+00  0.0000E+00  0.0000E+00  0.0000E+00  0.0000E+00  0.0000E+00  0.0000E+00  0.0000E+00  0.0000E+00  0.0000E+00  0.0000E+00  0.0000E+00  0.2136E+06  0.3799E+05  0.0000E+00  0.0000E+00
REACH    7        0     5  0.3091E+03  0.1099E+01  0.1070E+01  0.2901E-01  0.0000E+00  0.5152E+05  0.5152E+05  0.3171E+04  0.2800E+06  0.2742E+06  0.5281E+05  0.5111E+05  0.4469E+04  0.4131E+04  0.0000E+00  0.4758E+04  0.0000E+00  0.0000E+00  0.5170E+01  0.1546E+02  0.8120E+04  0.2429E+03  0.1160E+08  0.9756E+07  0.3070E+05  0.1748E+05  0.0000E+00  0.0000E+00  0.0000E+00  0.0000E+00  0.0000E+00  0.0000E+00  0.0000E+00  0.0000E+00  0.0000E+00  0.0000E+00  0.0000E+00  0.0000E+00  0.0000E+00  0.0000E+00  0.0000E+00  0.0000E+00  0.0000E+00  0.2830E+06  0.5113E+05  0.0000E+00  0.0000E+00
REACH    8        0     5  0.4145E+03  0.7367E+00  0.7086E+00  0.2815E-01  0.0000E+00  0.2896E+05  0.2896E+05  0.2504E+04  0.1098E+06  0.1064E+06  0.2156E+05  0.2052E+05  0.3677E+04  0.3443E+04  0.0000E+00  0.2700E+04  0.0000E+00  0.0000E+00  0.2327E+01  0.6937E+01  0.2833E+04  0.0000E+00  0.4413E+07  0.3435E+07  0.2236E+05  0.1291E+05  0.0000E+00  0.0000E+00  0.0000E+00  0.0000E+00  0.0000E+00  0.0000E+00  0.0000E+00  0.0000E+00  0.0000E+00  0.0000E+00  0.0000E+00  0.0000E+00  0.0000E+00  0.0000E+00  0.0000E+00  0.0000E+00  0.0000E+00  0.1125E+06  0.2053E+05  0.0000E+00  0.0000E+00
REACH    9        0     5  0.2583E+04  0.3667E+00  0.1946E+00  0.1721E+00  0.0000E+00  0.4467E+05  0.1646E+02  0.1022E+02  0.1523E+06  0.1073E+06  0.3074E+05  0.1834E+05  0.2044E+04  0.9835E+03  0.7464E+03  0.7649E+03  0.0000E+00  0.1005E+03  0.6153E+01  0.1309E+02  0.4136E+04  0.0000E+00  0.5895E+07  0.8311E+06  0.9199E+04  0.3134E+04  0.0000E+00  0.0000E+00  0.0000E+00  0.0000E+00  0.0000E+00  0.0000E+00  0.0000E+00  0.0000E+00  0.0000E+00  0.0000E+00  0.0000E+00  0.0000E+00  0.0000E+00  0.0000E+00  0.0000E+00  0.0000E+00  0.0000E+00  0.1092E+06  0.1835E+05  0.0000E+00  0.0000E+00
REACH   10        0     5  0.1039E+04  0.5107E+00  0.3840E+00  0.1267E+00  0.0000E+00  0.6283E+05  0.6283E+05  0.6900E+04  0.2061E+06  0.1680E+06  0.4202E+05  0.3032E+05  0.2798E+04  0.1950E+04  0.0000E+00  0.2836E+05  0.0000E+00  0.0000E+00  0.5995E+01  0.1724E+02  0.5752E+04  0.0000E+00  0.8198E+07  0.1888E+07  0.1273E+05  0.7017E+04  0.0000E+00  0.0000E+00  0.0000E+00  0.0000E+00  0.0000E+00  0.0000E+00  0.0000E+00  0.0000E+00  0.0000E+00  0.0000E+00  0.0000E+00  0.0000E+00  0.0000E+00  0.0000E+00  0.0000E+00  0.0000E+00  0.0000E+00  0.1984E+06  0.3033E+05  0.0000E+00  0.0000E+00
REACH   11        0     5  0.4033E+04  0.8872E+00  0.7304E+00  0.1568E+00  0.0000E+00  0.8145E+05  0.9023E+02  0.1639E+02  0.3254E+06  0.2765E+06  0.5921E+05  0.4644E+05  0.5230E+04  0.4473E+04  0.2912E+05  0.5543E+05  0.1005E+03  0.2918E+03  0.3189E+02  0.9283E+02  0.1326E+04  0.0000E+00  0.4676E+07  0.1656E+07  0.1912E+05  0.1296E+05  0.0000E+00  0.0000E+00  0.0000E+00  0.0000E+00  0.0000E+00  0.0000E+00  0.0000E+00  0.0000E+00  0.0000E+00  0.0000E+00  0.0000E+00  0.0000E+00  0.0000E+00  0.0000E+00  0.0000E+00  0.0000E+00  0.0000E+00  0.3367E+06  0.4653E+05  0.0000E+00  0.0000E+00
REACH   12        0     5  0.4536E+04  0.1067E+01  0.9546E+00  0.1126E+00  0.0000E+00  0.3970E+03  0.1277E+03  0.2032E+02  0.2787E+06  0.2576E+06  0.4683E+05  0.4177E+05  0.8475E+04  0.6384E+04  0.5555E+05  0.6462E+05  0.2918E+03  0.8623E+03  0.9295E+02  0.2746E+03  0.2121E+00  0.0000E+00  0.1662E+07  0.1013E+07  0.2128E+05  0.1638E+05  0.0000E+00  0.0000E+00  0.0000E+00  0.0000E+00  0.0000E+00  0.0000E+00  0.0000E+00  0.0000E+00  0.0000E+00  0.0000E+00  0.0000E+00  0.0000E+00  0.0000E+00  0.0000E+00  0.0000E+00  0.0000E+00  0.0000E+00  0.3294E+06  0.4205E+05  0.0000E+00  0.0000E+00
REACH   13        0     5  0.3339E+03  0.2046E+00  0.1887E+00  0.1595E-01  0.0000E+00  0.2580E+03  0.2580E+03  0.2762E+03  0.1941E+04  0.1729E+04  0.3635E+03  0.3094E+03  0.2311E+04  0.1990E+04  0.0000E+00  0.1191E+03  0.0000E+00  0.0000E+00  0.3907E-01  0.1115E+00  0.1919E+01  0.0000E+00  0.9097E+04  0.4683E+04  0.5810E+04  0.4112E+04  0.0000E+00  0.0000E+00  0.0000E+00  0.0000E+00  0.0000E+00  0.0000E+00  0.0000E+00  0.0000E+00  0.0000E+00  0.0000E+00  0.0000E+00  0.0000E+00  0.0000E+00  0.0000E+00  0.0000E+00  0.0000E+00  0.0000E+00  0.3838E+04  0.3095E+03  0.0000E+00  0.0000E+00
REACH   14        0     5  0.4614E+04  0.1013E+01  0.9720E+00  0.4090E-01  0.0000E+00  0.1736E+03  0.1287E+03  0.1817E+02  0.2580E+06  0.2499E+06  0.4185E+05  0.3998E+05  0.7349E+04  0.6536E+04  0.6462E+05  0.6883E+05  0.8623E+03  0.1341E+04  0.2747E+03  0.8189E+03  0.3036E+00  0.0000E+00  0.1015E+07  0.8275E+06  0.1804E+05  0.1715E+05  0.0000E+00  0.0000E+00  0.0000E+00  0.0000E+00  0.0000E+00  0.0000E+00  0.0000E+00  0.0000E+00  0.0000E+00  0.0000E+00  0.0000E+00  0.0000E+00  0.0000E+00  0.0000E+00  0.0000E+00  0.0000E+00  0.0000E+00  0.3266E+06  0.4080E+05  0.0000E+00  0.0000E+00
REACH   15        0     5  0.8564E+04  0.5778E+01  0.4992E+01  0.7860E+00  0.0000E+00  0.1302E+04  0.9960E+03  0.4290E+02  0.1325E+07  0.1000E+07  0.2199E+06  0.1440E+06  0.5101E+05  0.4178E+05  0.2701E+06  0.4250E+06  0.1060E+05  0.2463E+05  0.5141E+04  0.1444E+05  0.3096E+01  0.0000E+00  0.1137E+08  0.2192E+07  0.1032E+06  0.7169E+05  0.0000E+00  0.0000E+00  0.0000E+00  0.0000E+00  0.0000E+00  0.0000E+00  0.0000E+00  0.0000E+00  0.0000E+00  0.0000E+00  0.0000E+00  0.0000E+00  0.0000E+00  0.0000E+00  0.0000E+00  0.0000E+00  0.0000E+00  0.1492E+07  0.1584E+06  0.0000E+00  0.0000E+00
REACH   16        0     5  0.4974E+04  0.1328E+01  0.1217E+01  0.1112E+00  0.0000E+00  0.2169E+03  0.1819E+03  0.2223E+02  0.2506E+06  0.2342E+06  0.4012E+05  0.3636E+05  0.1116E+05  0.8790E+04  0.6885E+05  0.7418E+05  0.1341E+04  0.3955E+04  0.8190E+03  0.2425E+04  0.1145E+00  0.0000E+00  0.8294E+06  0.5384E+06  0.2630E+05  0.2171E+05  0.0000E+00  0.0000E+00  0.0000E+00  0.0000E+00  0.0000E+00  0.0000E+00  0.0000E+00  0.0000E+00  0.0000E+00  0.0000E+00  0.0000E+00  0.0000E+00  0.0000E+00  0.0000E+00  0.0000E+00  0.0000E+00  0.0000E+00  0.3211E+06  0.3879E+05  0.0000E+00  0.0000E+00
REACH   17        0     5  0.2471E+04  0.2997E+01  0.2952E+01  0.4536E-01  0.0000E+00  0.7190E+03  0.6725E+03  0.5440E+02  0.1110E+07  0.1087E+07  0.1883E+06  0.1829E+06  0.2028E+05  0.2016E+05  0.1835E+06  0.1959E+06  0.6090E+04  0.6644E+04  0.9110E+03  0.2716E+04  0.3931E+01  0.1208E+01  0.1230E+08  0.1082E+08  0.3580E+05  0.3519E+05  0.0000E+00  0.0000E+00  0.0000E+00  0.0000E+00  0.0000E+00  0.0000E+00  0.0000E+00  0.0000E+00  0.0000E+00  0.0000E+00  0.0000E+00  0.0000E+00  0.0000E+00  0.0000E+00  0.0000E+00  0.0000E+00  0.0000E+00  0.1310E+07  0.1856E+06  0.0000E+00  0.0000E+00
REACH   18        0     5  0.2198E+03  0.1896E+00  0.1817E+00  0.7913E-02  0.0000E+00  0.6444E+02  0.6444E+02  0.6418E+02  0.5612E+03  0.5391E+03  0.1051E+03  0.9945E+02  0.2391E+04  0.2148E+04  0.0000E+00  0.1366E+02  0.0000E+00  0.0000E+00  0.1614E-01  0.4686E-01  0.2555E+00  0.0000E+00  0.1583E+04  0.1262E+04  0.5011E+04  0.4145E+04  0.0000E+00  0.0000E+00  0.0000E+00  0.0000E+00  0.0000E+00  0.0000E+00  0.0000E+00  0.0000E+00  0.0000E+00  0.0000E+00  0.0000E+00  0.0000E+00  0.0000E+00  0.0000E+00  0.0000E+00  0.0000E+00  0.0000E+00  0.2701E+04  0.9950E+02  0.0000E+00  0.0000E+00
REACH   19        0     5  0.2425E+04  0.3022E+01  0.2919E+01  0.1033E+00  0.0000E+00  0.1852E+05  0.6843E+03  0.5758E+02  0.1164E+07  0.1110E+07  0.2015E+06  0.1883E+06  0.1991E+05  0.1964E+05  0.1540E+06  0.1835E+06  0.4215E+04  0.6090E+04  0.3080E+03  0.9110E+03  0.1158E+04  0.0000E+00  0.1646E+08  0.1229E+08  0.5009E+05  0.3352E+05  0.0000E+00  0.0000E+00  0.0000E+00  0.0000E+00  0.0000E+00  0.0000E+00  0.0000E+00  0.0000E+00  0.0000E+00  0.0000E+00  0.0000E+00  0.0000E+00  0.0000E+00  0.0000E+00  0.0000E+00  0.0000E+00  0.0000E+00  0.1319E+07  0.1892E+06  0.0000E+00  0.0000E+00
REACH   20        0     5  0.3435E+03  0.3897E+00  0.3616E+00  0.2810E-01  0.0000E+00  0.4563E+04  0.4563E+04  0.7438E+03  0.3272E+05  0.3148E+05  0.6126E+04  0.5785E+04  0.4592E+04  0.3834E+04  0.0000E+00  0.8706E+03  0.0000E+00  0.0000E+00  0.5069E+00  0.1506E+01  0.4879E+03  0.0000E+00  0.7379E+06  0.5621E+06  0.1117E+05  0.6457E+04  0.0000E+00  0.0000E+00  0.0000E+00  0.0000E+00  0.0000E+00  0.0000E+00  0.0000E+00  0.0000E+00  0.0000E+00  0.0000E+00  0.0000E+00  0.0000E+00  0.0000E+00  0.0000E+00  0.0000E+00  0.0000E+00  0.0000E+00  0.3618E+05  0.5786E+04  0.0000E+00  0.0000E+00
REACH   21        0     5  0.1644E+04  0.2469E+01  0.2282E+01  0.1872E+00  0.0000E+00  0.2230E+06  0.4667E+03  0.5221E+02  0.1183E+07  0.1048E+07  0.2149E+06  0.1797E+06  0.1315E+05  0.1184E+05  0.6964E+05  0.1531E+06  0.0000E+00  0.4215E+04  0.1042E+03  0.3047E+03  0.6561E+03  0.0000E+00  0.2997E+08  0.1409E+08  0.4562E+05  0.3340E+05  0.0000E+00  0.0000E+00  0.0000E+00  0.0000E+00  0.0000E+00  0.0000E+00  0.0000E+00  0.0000E+00  0.0000E+00  0.0000E+00  0.0000E+00  0.0000E+00  0.0000E+00  0.0000E+00  0.0000E+00  0.0000E+00  0.0000E+00  0.1217E+07  0.1800E+06  0.0000E+00  0.0000E+00
REACH   22        0     5  0.6718E+03  0.1570E+01  0.1461E+01  0.1087E+00  0.0000E+00  0.2153E+06  0.2153E+06  0.8265E+04  0.1210E+07  0.1128E+07  0.2289E+06  0.2047E+06  0.4794E+04  0.3089E+04  0.0000E+00  0.6926E+05  0.0000E+00  0.0000E+00  0.3480E+02  0.1030E+03  0.4016E+05  0.0000E+00  0.5031E+08  0.2878E+08  0.3560E+05  0.2298E+05  0.0000E+00  0.0000E+00  0.0000E+00  0.0000E+00  0.0000E+00  0.0000E+00  0.0000E+00  0.0000E+00  0.0000E+00  0.0000E+00  0.0000E+00  0.0000E+00  0.0000E+00  0.0000E+00  0.0000E+00  0.0000E+00  0.0000E+00  0.1200E+07  0.2048E+06  0.0000E+00  0.0000E+00
REACH   23        0     5  0.3564E+03  0.4879E+00  0.4554E+00  0.3258E-01  0.0000E+00  0.1155E+04  0.1155E+04  0.1289E+03  0.9377E+04  0.8899E+04  0.1756E+04  0.1620E+04  0.4761E+04  0.4171E+04  0.0000E+00  0.3739E+03  0.0000E+00  0.0000E+00  0.2109E+00  0.6255E+00  0.1933E+03  0.0000E+00  0.2482E+06  0.1665E+06  0.1282E+05  0.7814E+04  0.0000E+00  0.0000E+00  0.0000E+00  0.0000E+00  0.0000E+00  0.0000E+00  0.0000E+00  0.0000E+00  0.0000E+00  0.0000E+00  0.0000E+00  0.0000E+00  0.0000E+00  0.0000E+00  0.0000E+00  0.0000E+00  0.0000E+00  0.1344E+05  0.1621E+04  0.0000E+00  0.0000E+00
REACH    1        0     6  0.9887E+04  0.2347E+02  0.2316E+02  0.3066E+00  0.0000E+00  0.1416E+06  0.8541E+04  0.1050E+03  0.8825E+07  0.8563E+07  0.1456E+07  0.1394E+07  0.1524E+06  0.1566E+06  0.1975E+07  0.2123E+07  0.1998E+06  0.2134E+06  0.1423E+06  0.1859E+06  0.3528E+04  0.1650E+04  0.6669E+08  0.5543E+08  0.2382E+06  0.2086E+06  0.0000E+00  0.0000E+00  0.0000E+00  0.0000E+00  0.0000E+00  0.0000E+00  0.0000E+00  0.0000E+00  0.0000E+00  0.0000E+00  0.0000E+00  0.0000E+00  0.0000E+00  0.0000E+00  0.0000E+00  0.0000E+00  0.0000E+00  0.1106E+08  0.1580E+07  0.0000E+00  0.0000E+00
REACH    2        0     6  0.3782E+03  0.1833E+00  0.1652E+00  0.1804E-01  0.0000E+00  0.1638E+05  0.1638E+05  0.1104E+05  0.2046E+05  0.1864E+05  0.5608E+04  0.4905E+04  0.2568E+03  0.1813E+03  0.0000E+00  0.1162E+04  0.0000E+00  0.0000E+00  0.2247E+01  0.6529E+01  0.6111E+03  0.0000E+00  0.7182E+06  0.4128E+06  0.4334E+04  0.2721E+04  0.0000E+00  0.0000E+00  0.0000E+00  0.0000E+00  0.0000E+00  0.0000E+00  0.0000E+00  0.0000E+00  0.0000E+00  0.0000E+00  0.0000E+00  0.0000E+00  0.0000E+00  0.0000E+00  0.0000E+00  0.0000E+00  0.0000E+00  0.1998E+05  0.4912E+04  0.0000E+00  0.0000E+00
REACH    3        0     6  0.1486E+04  0.2480E+01  0.2253E+01  0.2273E+00  0.0000E+00  0.8019E+06  0.8019E+06  0.2322E+05  0.1219E+07  0.1053E+07  0.2993E+06  0.2352E+06  0.2275E+04  0.7375E+03  0.0000E+00  0.1352E+06  0.0000E+00  0.0000E+00  0.9951E+02  0.2874E+03  0.4329E+05  0.0000E+00  0.4187E+08  0.1560E+08  0.3211E+05  0.1537E+05  0.0000E+00  0.0000E+00  0.0000E+00  0.0000E+00  0.0000E+00  0.0000E+00  0.0000E+00  0.0000E+00  0.0000E+00  0.0000E+00  0.0000E+00  0.0000E+00  0.0000E+00  0.0000E+00  0.0000E+00  0.0000E+00  0.0000E+00  0.1189E+07  0.2355E+06  0.0000E+00  0.0000E+00
REACH    4        0     6  0.9456E+04  0.2180E+02  0.2152E+02  0.2848E+00  0.0000E+00  0.6359E+04  0.6359E+04  0.8951E+02  0.8497E+07  0.8280E+07  0.1404E+07  0.1354E+07  0.1418E+06  0.1456E+06  0.1856E+07  0.1967E+07  0.1865E+06  0.1998E+06  0.1105E+06  0.1423E+06  0.1728E-10  0.0000E+00  0.5414E+08  0.4616E+08  0.2160E+06  0.2076E+06  0.0000E+00  0.0000E+00  0.0000E+00  0.0000E+00  0.0000E+00  0.0000E+00  0.0000E+00  0.0000E+00  0.0000E+00  0.0000E+00  0.0000E+00  0.0000E+00  0.0000E+00  0.0000E+00  0.0000E+00  0.0000E+00  0.0000E+00  0.1059E+08  0.1496E+07  0.0000E+00  0.0000E+00
REACH    5        0     6  0.2643E+03  0.9943E+00  0.9794E+00  0.1492E-01  0.0000E+00  0.2330E+05  0.2330E+05  0.2839E+04  0.1097E+06  0.1075E+06  0.2061E+05  0.2000E+05  0.4043E+04  0.3933E+04  0.0000E+00  0.1649E+04  0.0000E+00  0.0000E+00  0.1432E+01  0.4280E+01  0.2180E+04  0.0000E+00  0.3825E+07  0.3286E+07  0.2884E+05  0.1792E+05  0.0000E+00  0.0000E+00  0.0000E+00  0.0000E+00  0.0000E+00  0.0000E+00  0.0000E+00  0.0000E+00  0.0000E+00  0.0000E+00  0.0000E+00  0.0000E+00  0.0000E+00  0.0000E+00  0.0000E+00  0.0000E+00  0.0000E+00  0.1131E+06  0.2000E+05  0.0000E+00  0.0000E+00
REACH    6        0     6  0.7374E+03  0.2299E+01  0.2273E+01  0.2637E-01  0.0000E+00  0.5147E+05  0.5582E+03  0.7959E+02  0.2257E+06  0.2209E+06  0.4190E+05  0.4060E+05  0.1047E+05  0.1032E+05  0.5063E+04  0.8313E+04  0.0000E+00  0.1763E+02  0.8848E+01  0.2646E+02  0.5532E-12  0.0000E+00  0.6521E+07  0.5625E+07  0.4359E+05  0.4274E+05  0.0000E+00  0.0000E+00  0.0000E+00  0.0000E+00  0.0000E+00  0.0000E+00  0.0000E+00  0.0000E+00  0.0000E+00  0.0000E+00  0.0000E+00  0.0000E+00  0.0000E+00  0.0000E+00  0.0000E+00  0.0000E+00  0.0000E+00  0.2395E+06  0.4063E+05  0.0000E+00  0.0000E+00
REACH    7        0     6  0.3091E+03  0.1940E+01  0.1913E+01  0.2644E-01  0.0000E+00  0.1352E+06  0.1352E+06  0.6339E+04  0.5544E+06  0.5441E+06  0.1052E+06  0.1021E+06  0.6815E+04  0.6518E+04  0.0000E+00  0.8410E+04  0.0000E+00  0.0000E+00  0.6435E+01  0.1925E+02  0.1414E+05  0.3528E+04  0.2377E+08  0.2053E+08  0.5131E+05  0.2969E+05  0.0000E+00  0.0000E+00  0.0000E+00  0.0000E+00  0.0000E+00  0.0000E+00  0.0000E+00  0.0000E+00  0.0000E+00  0.0000E+00  0.0000E+00  0.0000E+00  0.0000E+00  0.0000E+00  0.0000E+00  0.0000E+00  0.0000E+00  0.5590E+06  0.1022E+06  0.0000E+00  0.0000E+00
REACH    8        0     6  0.4145E+03  0.1329E+01  0.1295E+01  0.3381E-01  0.0000E+00  0.2817E+05  0.2817E+05  0.3385E+04  0.1229E+06  0.1182E+06  0.2322E+05  0.2190E+05  0.6079E+04  0.5829E+04  0.0000E+00  0.3414E+04  0.0000E+00  0.0000E+00  0.1535E+01  0.4568E+01  0.2398E+04  0.0000E+00  0.4303E+07  0.3235E+07  0.3887E+05  0.2492E+05  0.0000E+00  0.0000E+00  0.0000E+00  0.0000E+00  0.0000E+00  0.0000E+00  0.0000E+00  0.0000E+00  0.0000E+00  0.0000E+00  0.0000E+00  0.0000E+00  0.0000E+00  0.0000E+00  0.0000E+00  0.0000E+00  0.0000E+00  0.1274E+06  0.2191E+05  0.0000E+00  0.0000E+00
REACH    9        0     6  0.2583E+04  0.3303E+01  0.3027E+01  0.2764E+00  0.0000E+00  0.8524E+06  0.6400E+03  0.4617E+02  0.1242E+07  0.1063E+07  0.2724E+06  0.2159E+06  0.5224E+04  0.4161E+04  0.1364E+06  0.2312E+06  0.0000E+00  0.2401E+05  0.2968E+03  0.8625E+03  0.3978E+04  0.0000E+00  0.2210E+08  0.9074E+07  0.4290E+05  0.2154E+05  0.0000E+00  0.0000E+00  0.0000E+00  0.0000E+00  0.0000E+00  0.0000E+00  0.0000E+00  0.0000E+00  0.0000E+00  0.0000E+00  0.0000E+00  0.0000E+00  0.0000E+00  0.0000E+00  0.0000E+00  0.0000E+00  0.0000E+00  0.1322E+07  0.2168E+06  0.0000E+00  0.0000E+00
REACH   10        0     6  0.1039E+04  0.1488E+01  0.1326E+01  0.1621E+00  0.0000E+00  0.4969E+05  0.4969E+05  0.8780E+04  0.2365E+06  0.1778E+06  0.4489E+05  0.2860E+05  0.6345E+04  0.5266E+04  0.0000E+00  0.4072E+05  0.0000E+00  0.0000E+00  0.3795E+01  0.1069E+02  0.5324E+04  0.0000E+00  0.8444E+07  0.1260E+07  0.3933E+05  0.2745E+05  0.0000E+00  0.0000E+00  0.0000E+00  0.0000E+00  0.0000E+00  0.0000E+00  0.0000E+00  0.0000E+00  0.0000E+00  0.0000E+00  0.0000E+00  0.0000E+00  0.0000E+00  0.0000E+00  0.0000E+00  0.0000E+00  0.0000E+00  0.2238E+06  0.2861E+05  0.0000E+00  0.0000E+00
REACH   11        0     6  0.4033E+04  0.5112E+01  0.4866E+01  0.2461E+00  0.0000E+00  0.6348E+05  0.9853E+03  0.5609E+02  0.1298E+07  0.1175E+07  0.2555E+06  0.2207E+06  0.1403E+05  0.2026E+05  0.2719E+06  0.3298E+06  0.2401E+05  0.3604E+05  0.8741E+03  0.2573E+04  0.1180E+04  0.0000E+00  0.1231E+08  0.6700E+07  0.7087E+05  0.4950E+05  0.0000E+00  0.0000E+00  0.0000E+00  0.0000E+00  0.0000E+00  0.0000E+00  0.0000E+00  0.0000E+00  0.0000E+00  0.0000E+00  0.0000E+00  0.0000E+00  0.0000E+00  0.0000E+00  0.0000E+00  0.0000E+00  0.0000E+00  0.1561E+07  0.2232E+06  0.0000E+00  0.0000E+00
REACH   12        0     6  0.4536E+04  0.6178E+01  0.6016E+01  0.1622E+00  0.0000E+00  0.1252E+06  0.1373E+04  0.6597E+02  0.1676E+07  0.1589E+07  0.3184E+06  0.2944E+06  0.2816E+05  0.3248E+05  0.3389E+06  0.3789E+06  0.3604E+05  0.3972E+05  0.2593E+04  0.7493E+04  0.3878E+04  0.0000E+00  0.1806E+08  0.1171E+08  0.7585E+05  0.6049E+05  0.0000E+00  0.0000E+00  0.0000E+00  0.0000E+00  0.0000E+00  0.0000E+00  0.0000E+00  0.0000E+00  0.0000E+00  0.0000E+00  0.0000E+00  0.0000E+00  0.0000E+00  0.0000E+00  0.0000E+00  0.0000E+00  0.0000E+00  0.2040E+07  0.3019E+06  0.0000E+00  0.0000E+00
REACH   13        0     6  0.3339E+03  0.8642E+00  0.8449E+00  0.1929E-01  0.0000E+00  0.8890E+05  0.8890E+05  0.1652E+05  0.3188E+06  0.3065E+06  0.6424E+05  0.6055E+05  0.5015E+04  0.4588E+04  0.0000E+00  0.9071E+04  0.0000E+00  0.0000E+00  0.6039E+01  0.1796E+02  0.6531E+04  0.0000E+00  0.8507E+07  0.6417E+07  0.2161E+05  0.1440E+05  0.0000E+00  0.0000E+00  0.0000E+00  0.0000E+00  0.0000E+00  0.0000E+00  0.0000E+00  0.0000E+00  0.0000E+00  0.0000E+00  0.0000E+00  0.0000E+00  0.0000E+00  0.0000E+00  0.0000E+00  0.0000E+00  0.0000E+00  0.3201E+06  0.6057E+05  0.0000E+00  0.0000E+00
REACH   14        0     6  0.4614E+04  0.6225E+01  0.6158E+01  0.6672E-01  0.0000E+00  0.2654E+05  0.1392E+04  0.6403E+02  0.1768E+07  0.1728E+07  0.3279E+06  0.3172E+06  0.3433E+05  0.3556E+05  0.3789E+06  0.4020E+06  0.3972E+05  0.4046E+05  0.7496E+04  0.1201E+05  0.3837E+04  0.3797E+02  0.1641E+08  0.1364E+08  0.6568E+05  0.6390E+05  0.0000E+00  0.0000E+00  0.0000E+00  0.0000E+00  0.0000E+00  0.0000E+00  0.0000E+00  0.0000E+00  0.0000E+00  0.0000E+00  0.0000E+00  0.0000E+00  0.0000E+00  0.0000E+00  0.0000E+00  0.0000E+00  0.0000E+00  0.2206E+07  0.3293E+06  0.0000E+00  0.0000E+00
REACH   15        0     6  0.8564E+04  0.2032E+02  0.1947E+02  0.8525E+00  0.0000E+00  0.2819E+06  0.5801E+04  0.8788E+02  0.9693E+07  0.8276E+07  0.1743E+07  0.1364E+07  0.1021E+06  0.1297E+06  0.1162E+07  0.1847E+07  0.8085E+05  0.1865E+06  0.3791E+05  0.1105E+06  0.4288E+05  0.0000E+00  0.1445E+09  0.4852E+08  0.2563E+06  0.1718E+06  0.0000E+00  0.0000E+00  0.0000E+00  0.0000E+00  0.0000E+00  0.0000E+00  0.0000E+00  0.0000E+00  0.0000E+00  0.0000E+00  0.0000E+00  0.0000E+00  0.0000E+00  0.0000E+00  0.0000E+00  0.0000E+00  0.0000E+00  0.1044E+08  0.1474E+07  0.0000E+00  0.0000E+00
REACH   16        0     6  0.4974E+04  0.7190E+01  0.7026E+01  0.1640E+00  0.0000E+00  0.7177E+05  0.1682E+04  0.6963E+02  0.2077E+07  0.1967E+07  0.3841E+06  0.3547E+06  0.4092E+05  0.4533E+05  0.4058E+06  0.4657E+06  0.4046E+05  0.4559E+05  0.1202E+05  0.2262E+05  0.1980E+04  0.0000E+00  0.2168E+08  0.1408E+08  0.8576E+05  0.7362E+05  0.0000E+00  0.0000E+00  0.0000E+00  0.0000E+00  0.0000E+00  0.0000E+00  0.0000E+00  0.0000E+00  0.0000E+00  0.0000E+00  0.0000E+00  0.0000E+00  0.0000E+00  0.0000E+00  0.0000E+00  0.0000E+00  0.0000E+00  0.2524E+07  0.3773E+06  0.0000E+00  0.0000E+00
REACH   17        0     6  0.2471E+04  0.9042E+01  0.8999E+01  0.4235E-01  0.0000E+00  0.1008E+05  0.3210E+04  0.9173E+02  0.6157E+07  0.6081E+07  0.1098E+07  0.1078E+07  0.2969E+05  0.3003E+05  0.6462E+06  0.6967E+06  0.3305E+05  0.3526E+05  0.5164E+04  0.1527E+05  0.1306E+05  0.1058E+05  0.9662E+08  0.8893E+08  0.7235E+05  0.6957E+05  0.0000E+00  0.0000E+00  0.0000E+00  0.0000E+00  0.0000E+00  0.0000E+00  0.0000E+00  0.0000E+00  0.0000E+00  0.0000E+00  0.0000E+00  0.0000E+00  0.0000E+00  0.0000E+00  0.0000E+00  0.0000E+00  0.0000E+00  0.6843E+07  0.1093E+07  0.0000E+00  0.0000E+00
REACH   18        0     6  0.2198E+03  0.6170E+00  0.6090E+00  0.8029E-02  0.0000E+00  0.5719E+05  0.5719E+05  0.1415E+05  0.2600E+06  0.2547E+06  0.5070E+05  0.4916E+05  0.3288E+04  0.3069E+04  0.0000E+00  0.3875E+04  0.0000E+00  0.0000E+00  0.3821E+01  0.1141E+02  0.5064E+04  0.0000E+00  0.6527E+07  0.5607E+07  0.1447E+05  0.1065E+05  0.0000E+00  0.0000E+00  0.0000E+00  0.0000E+00  0.0000E+00  0.0000E+00  0.0000E+00  0.0000E+00  0.0000E+00  0.0000E+00  0.0000E+00  0.0000E+00  0.0000E+00  0.0000E+00  0.0000E+00  0.0000E+00  0.0000E+00  0.2617E+06  0.4918E+05  0.0000E+00  0.0000E+00
[...]
REACH   14        0    10  0.4614E+04  0.2920E+02  0.2917E+02  0.3222E-01  0.0000E+00  0.1203E+05  0.1161E+05  0.1404E+03  0.3549E+07  0.3523E+07  0.6417E+06  0.6350E+06  0.4866E+04  0.5095E+04  0.2407E+06  0.2575E+06  0.7650E+04  0.8602E+04  0.8791E+04  0.1423E+05  0.3060E+04  0.2665E+04  0.2445E+09  0.2332E+09  0.6473E+06  0.6435E+06  0.0000E+00  0.0000E+00  0.0000E+00  0.0000E+00  0.0000E+00  0.0000E+00  0.0000E+00  0.0000E+00  0.0000E+00  0.0000E+00  0.0000E+00  0.0000E+00  0.0000E+00  0.0000E+00  0.0000E+00  0.0000E+00  0.0000E+00  0.3795E+07  0.6492E+06  0.0000E+00  0.0000E+00
REACH   15        0    10  0.8564E+04  0.4402E+02  0.4361E+02  0.4103E+00  0.0000E+00  0.1492E+05  0.1604E+05  0.1329E+03  0.3594E+07  0.3322E+07  0.6412E+06  0.5700E+06  0.1664E+05  0.2059E+05  0.3174E+06  0.4865E+06  0.1275E+05  0.2877E+05  0.2858E+05  0.8408E+05  0.1834E+04  0.0000E+00  0.2127E+09  0.1277E+09  0.1018E+07  0.9016E+06  0.0000E+00  0.0000E+00  0.0000E+00  0.0000E+00  0.0000E+00  0.0000E+00  0.0000E+00  0.0000E+00  0.0000E+00  0.0000E+00  0.0000E+00  0.0000E+00  0.0000E+00  0.0000E+00  0.0000E+00  0.0000E+00  0.0000E+00  0.3858E+07  0.6540E+06  0.0000E+00  0.0000E+00
REACH   16        0    10  0.4974E+04  0.3143E+02  0.3135E+02  0.7930E-01  0.0000E+00  0.1161E+05  0.1260E+05  0.1430E+03  0.3523E+07  0.3463E+07  0.6350E+06  0.6190E+06  0.6065E+04  0.6678E+04  0.2575E+06  0.2972E+06  0.8602E+04  0.1120E+05  0.1423E+05  0.2715E+05  0.2665E+04  0.1831E+04  0.2332E+09  0.2079E+09  0.7080E+06  0.6986E+06  0.0000E+00  0.0000E+00  0.0000E+00  0.0000E+00  0.0000E+00  0.0000E+00  0.0000E+00  0.0000E+00  0.0000E+00  0.0000E+00  0.0000E+00  0.0000E+00  0.0000E+00  0.0000E+00  0.0000E+00  0.0000E+00  0.0000E+00  0.3778E+07  0.6462E+06  0.0000E+00  0.0000E+00
REACH   17        0    10  0.2471E+04  0.8370E+01  0.8348E+01  0.2149E-01  0.0000E+00  0.2456E+04  0.2320E+04  0.9907E+02  0.1328E+06  0.1310E+06  0.2263E+05  0.2217E+05  0.5618E+04  0.5640E+04  0.1907E+05  0.2018E+05  0.1442E+04  0.1551E+04  0.1069E+04  0.1431E+04  0.1011E+02  0.2547E+01  0.5229E+07  0.4749E+07  0.1868E+06  0.1844E+06  0.0000E+00  0.0000E+00  0.0000E+00  0.0000E+00  0.0000E+00  0.0000E+00  0.0000E+00  0.0000E+00  0.0000E+00  0.0000E+00  0.0000E+00  0.0000E+00  0.0000E+00  0.0000E+00  0.0000E+00  0.0000E+00  0.0000E+00  0.1583E+06  0.2360E+05  0.0000E+00  0.0000E+00
REACH   18        0    10  0.2198E+03  0.1838E+01  0.1834E+01  0.3895E-02  0.0000E+00  0.8051E-06  0.8051E-06  0.1704E-06  0.6315E-03  0.0000E+00  0.1894E-02  0.0000E+00  0.5679E+03  0.5667E+03  0.0000E+00  0.1566E+01  0.0000E+00  0.0000E+00  0.6321E-03  0.0000E+00  0.1805E-12  0.0000E+00  0.0000E+00  0.0000E+00  0.5327E+05  0.5116E+05  0.0000E+00  0.0000E+00  0.0000E+00  0.0000E+00  0.0000E+00  0.0000E+00  0.0000E+00  0.0000E+00  0.0000E+00  0.0000E+00  0.0000E+00  0.0000E+00  0.0000E+00  0.0000E+00  0.0000E+00  0.0000E+00  0.0000E+00  0.5682E+03  0.0000E+00  0.0000E+00  0.0000E+00
REACH   19        0    10  0.2425E+04  0.8160E+01  0.8111E+01  0.4900E-01  0.0000E+00  0.2303E+04  0.2370E+04  0.1028E+03  0.1366E+06  0.1325E+06  0.2360E+05  0.2258E+05  0.5440E+04  0.5499E+04  0.1685E+05  0.1907E+05  0.9581E+03  0.1442E+04  0.3589E+03  0.1069E+04  0.4547E+01  0.0000E+00  0.6401E+07  0.5221E+07  0.1990E+06  0.1788E+06  0.0000E+00  0.0000E+00  0.0000E+00  0.0000E+00  0.0000E+00  0.0000E+00  0.0000E+00  0.0000E+00  0.0000E+00  0.0000E+00  0.0000E+00  0.0000E+00  0.0000E+00  0.0000E+00  0.0000E+00  0.0000E+00  0.0000E+00  0.1585E+06  0.2364E+05  0.0000E+00  0.0000E+00
REACH   20        0    10  0.3435E+03  0.9853E+00  0.9714E+00  0.1394E-01  0.0000E+00  0.6030E+03  0.6030E+03  0.1938E+03  0.1130E+04  0.1088E+04  0.2192E+03  0.2072E+03  0.1005E+04  0.9911E+03  0.0000E+00  0.3558E+02  0.0000E+00  0.0000E+00  0.6096E-01  0.1786E+00  0.3529E+02  0.0000E+00  0.5401E+05  0.4020E+05  0.3068E+05  0.2299E+05  0.0000E+00  0.0000E+00  0.0000E+00  0.0000E+00  0.0000E+00  0.0000E+00  0.0000E+00  0.0000E+00  0.0000E+00  0.0000E+00  0.0000E+00  0.0000E+00  0.0000E+00  0.0000E+00  0.0000E+00  0.0000E+00  0.0000E+00  0.2115E+04  0.2074E+03  0.0000E+00  0.0000E+00
REACH   21        0    10  0.1644E+04  0.5037E+01  0.4948E+01  0.8919E-01  0.0000E+00  0.5732E+05  0.1123E+04  0.7823E+02  0.1477E+06  0.1350E+06  0.2666E+05  0.2329E+05  0.2388E+04  0.2344E+04  0.8837E+04  0.1681E+05  0.0000E+00  0.9581E+03  0.1206E+03  0.3586E+03  0.2109E+01  0.0000E+00  0.1141E+08  0.6311E+07  0.1205E+06  0.1077E+06  0.0000E+00  0.0000E+00  0.0000E+00  0.0000E+00  0.0000E+00  0.0000E+00  0.0000E+00  0.0000E+00  0.0000E+00  0.0000E+00  0.0000E+00  0.0000E+00  0.0000E+00  0.0000E+00  0.0000E+00  0.0000E+00  0.0000E+00  0.1551E+06  0.2365E+05  0.0000E+00  0.0000E+00
REACH   22        0    10  0.6718E+03  0.2082E+01  0.2033E+01  0.4888E-01  0.0000E+00  0.5681E+05  0.5681E+05  0.2653E+04  0.1575E+06  0.1470E+06  0.2962E+05  0.2654E+05  0.9894E+03  0.5952E+03  0.0000E+00  0.8821E+04  0.0000E+00  0.0000E+00  0.4049E+02  0.1204E+03  0.4844E+04  0.0000E+00  0.1879E+08  0.1136E+08  0.5024E+05  0.3811E+05  0.0000E+00  0.0000E+00  0.0000E+00  0.0000E+00  0.0000E+00  0.0000E+00  0.0000E+00  0.0000E+00  0.0000E+00  0.0000E+00  0.0000E+00  0.0000E+00  0.0000E+00  0.0000E+00  0.0000E+00  0.0000E+00  0.0000E+00  0.1564E+06  0.2666E+05  0.0000E+00  0.0000E+00
REACH   23        0    10  0.3564E+03  0.2040E+01  0.2020E+01  0.2022E-01  0.0000E+00  0.1155E+03  0.1155E+03  0.1571E+02  0.2188E+03  0.2080E+03  0.4138E+02  0.3833E+02  0.3775E+03  0.3741E+03  0.0000E+00  0.1615E+02  0.0000E+00  0.0000E+00  0.2383E-01  0.6831E-01  0.2653E+01  0.0000E+00  0.1974E+05  0.1354E+05  0.5826E+05  0.5373E+05  0.0000E+00  0.0000E+00  0.0000E+00  0.0000E+00  0.0000E+00  0.0000E+00  0.0000E+00  0.0000E+00  0.0000E+00  0.0000E+00  0.0000E+00  0.0000E+00  0.0000E+00  0.0000E+00  0.0000E+00  0.0000E+00  0.0000E+00  0.5982E+03  0.3840E+02  0.0000E+00  0.0000E+00
REACH    1        0    11  0.9887E+04  0.2394E+02  0.2387E+02  0.6397E-01  0.0000E+00  0.6012E+04  0.7463E+04  0.1178E+03  0.1865E+06  0.1823E+06  0.2958E+05  0.2862E+05  0.4085E+04  0.4264E+04  0.4288E+05  0.4506E+05  0.2364E+04  0.2733E+04  0.6269E+04  0.7003E+04  0.8919E-10  0.0000E+00  0.8724E+07  0.7463E+07  0.7111E+06  0.7087E+06  0.0000E+00  0.0000E+00  0.0000E+00  0.0000E+00  0.0000E+00  0.0000E+00  0.0000E+00  0.0000E+00  0.0000E+00  0.0000E+00  0.0000E+00  0.0000E+00  0.0000E+00  0.0000E+00  0.0000E+00  0.0000E+00  0.0000E+00  0.2344E+06  0.3563E+05  0.0000E+00  0.0000E+00
REACH    2        0    11  0.3782E+03  0.2812E+00  0.2769E+00  0.4274E-02  0.0000E+00  0.4338E-06  0.4338E-06  0.7120E-06  0.4019E+05  0.3810E+05  0.7520E+04  0.6934E+04  0.4689E+02  0.3410E+02  0.0000E+00  0.1569E+04  0.0000E+00  0.0000E+00  0.2355E+01  0.6990E+01  0.1290E+04  0.0000E+00  0.0000E+00  0.0000E+00  0.1028E+05  0.8668E+04  0.0000E+00  0.0000E+00  0.0000E+00  0.0000E+00  0.0000E+00  0.0000E+00  0.0000E+00  0.0000E+00  0.0000E+00  0.0000E+00  0.0000E+00  0.0000E+00  0.0000E+00  0.0000E+00  0.0000E+00  0.0000E+00  0.0000E+00  0.3970E+05  0.6941E+04  0.0000E+00  0.0000E+00
REACH    3        0    11  0.1486E+04  0.1097E+01  0.1027E+01  0.6916E-01  0.0000E+00  0.1159E+02  0.1159E+02  0.3025E+01  0.1900E+02  0.1469E+02  0.3622E+01  0.2469E+01  0.3820E+02  0.3543E+02  0.0000E+00  0.1952E+02  0.0000E+00  0.0000E+00  0.4847E-02  0.9746E-02  0.3517E-01  0.0000E+00  0.7700E+03  0.1665E+03  0.3753E+05  0.3115E+05  0.0000E+00  0.0000E+00  0.0000E+00  0.0000E+00  0.0000E+00  0.0000E+00  0.0000E+00  0.0000E+00  0.0000E+00  0.0000E+00  0.0000E+00  0.0000E+00  0.0000E+00  0.0000E+00  0.0000E+00  0.0000E+00  0.0000E+00  0.6963E+02  0.2479E+01  0.0000E+00  0.0000E+00
REACH    4        0    11  0.9456E+04  0.2371E+02  0.2365E+02  0.5642E-01  0.0000E+00  0.6012E+04  0.6012E+04  0.9574E+02  0.1901E+06  0.1865E+06  0.3041E+05  0.2958E+05  0.3884E+04  0.4016E+04  0.4098E+05  0.4288E+05  0.2098E+04  0.2364E+04  0.5640E+04  0.6269E+04  0.2204E-10  0.0000E+00  0.9938E+07  0.8724E+07  0.7059E+06  0.7021E+06  0.0000E+00  0.0000E+00  0.0000E+00  0.0000E+00  0.0000E+00  0.0000E+00  0.0000E+00  0.0000E+00  0.0000E+00  0.0000E+00  0.0000E+00  0.0000E+00  0.0000E+00  0.0000E+00  0.0000E+00  0.0000E+00  0.0000E+00  0.2357E+06  0.3585E+05  0.0000E+00  0.0000E+00
REACH    5        0    11  0.2643E+03  0.7983E+00  0.7946E+00  0.3714E-02  0.0000E+00  0.1611E+05  0.1611E+05  0.3906E+04  0.9161E+04  0.8994E+04  0.1741E+04  0.1693E+04  0.1244E+03  0.1231E+03  0.0000E+00  0.1339E+03  0.0000E+00  0.0000E+00  0.3190E+00  0.9533E+00  0.1566E+03  0.0000E+00  0.4110E+07  0.3541E+07  0.2893E+05  0.2345E+05  0.0000E+00  0.0000E+00  0.0000E+00  0.0000E+00  0.0000E+00  0.0000E+00  0.0000E+00  0.0000E+00  0.0000E+00  0.0000E+00  0.0000E+00  0.0000E+00  0.0000E+00  0.0000E+00  0.0000E+00  0.0000E+00  0.0000E+00  0.9251E+04  0.1694E+04  0.0000E+00  0.0000E+00
REACH    6        0    11  0.7374E+03  0.2420E+01  0.2415E+01  0.4428E-02  0.0000E+00  0.4471E+05  0.5540E+03  0.8576E+02  0.2394E+05  0.2351E+05  0.4497E+04  0.4377E+04  0.3167E+03  0.3161E+03  0.4771E+03  0.7890E+03  0.0000E+00  0.8841E+00  0.2212E+01  0.6626E+01  0.1142E-09  0.0000E+00  0.8999E+07  0.7867E+07  0.7179E+05  0.7164E+05  0.0000E+00  0.0000E+00  0.0000E+00  0.0000E+00  0.0000E+00  0.0000E+00  0.0000E+00  0.0000E+00  0.0000E+00  0.0000E+00  0.0000E+00  0.0000E+00  0.0000E+00  0.0000E+00  0.0000E+00  0.0000E+00  0.0000E+00  0.2461E+05  0.4384E+04  0.0000E+00  0.0000E+00
REACH    7        0    11  0.3091E+03  0.2872E+00  0.2820E+00  0.5239E-02  0.0000E+00  0.1049E-05  0.1049E-05  0.1481E-05  0.9263E-03  0.6781E-03  0.2779E-02  0.2453E-02  0.6855E+02  0.6718E+02  0.0000E+00  0.3124E+01  0.0000E+00  0.0000E+00  0.9273E-03  0.2372E-02  0.4778E-10  0.0000E+00  0.0000E+00  0.0000E+00  0.1009E+05  0.8904E+04  0.0000E+00  0.0000E+00  0.0000E+00  0.0000E+00  0.0000E+00  0.0000E+00  0.0000E+00  0.0000E+00  0.0000E+00  0.0000E+00  0.0000E+00  0.0000E+00  0.0000E+00  0.0000E+00  0.0000E+00  0.0000E+00  0.0000E+00  0.7030E+02  0.4825E-02  0.0000E+00  0.0000E+00
REACH    8        0    11  0.4145E+03  0.1632E+01  0.1623E+01  0.8425E-02  0.0000E+00  0.2859E+05  0.2859E+05  0.3737E+04  0.1537E+05  0.1495E+05  0.2928E+04  0.2805E+04  0.1942E+03  0.1917E+03  0.0000E+00  0.3431E+03  0.0000E+00  0.0000E+00  0.4214E+00  0.1258E+01  0.2657E+03  0.0000E+00  0.6856E+07  0.5459E+07  0.6001E+05  0.4827E+05  0.0000E+00  0.0000E+00  0.0000E+00  0.0000E+00  0.0000E+00  0.0000E+00  0.0000E+00  0.0000E+00  0.0000E+00  0.0000E+00  0.0000E+00  0.0000E+00  0.0000E+00  0.0000E+00  0.0000E+00  0.0000E+00  0.0000E+00  0.1548E+05  0.2806E+04  0.0000E+00  0.0000E+00
REACH    9        0    11  0.2583E+04  0.5509E+01  0.5440E+01  0.6897E-01  0.0000E+00  0.2822E+05  0.9932E+03  0.6814E+02  0.1086E+06  0.9456E+05  0.2024E+05  0.1634E+05  0.3654E+03  0.3355E+03  0.1588E+04  0.4680E+04  0.0000E+00  0.2683E+03  0.1075E+02  0.3190E+02  0.5214E+03  0.0000E+00  0.6924E+07  0.2510E+07  0.1923E+06  0.1617E+06  0.0000E+00  0.0000E+00  0.0000E+00  0.0000E+00  0.0000E+00  0.0000E+00  0.0000E+00  0.0000E+00  0.0000E+00  0.0000E+00  0.0000E+00  0.0000E+00  0.0000E+00  0.0000E+00  0.0000E+00  0.0000E+00  0.0000E+00  0.9984E+05  0.1637E+05  0.0000E+00  0.0000E+00
REACH   10        0    11  0.1039E+04  0.6024E+01  0.5983E+01  0.4062E-01  0.0000E+00  0.4328E+05  0.4328E+05  0.1625E+04  0.1020E+06  0.9356E+05  0.1925E+05  0.1686E+05  0.3867E+03  0.3577E+03  0.0000E+00  0.6455E+04  0.0000E+00  0.0000E+00  0.4844E+01  0.1447E+02  0.7616E+03  0.0000E+00  0.1040E+08  0.5432E+07  0.2047E+06  0.1787E+06  0.0000E+00  0.0000E+00  0.0000E+00  0.0000E+00  0.0000E+00  0.0000E+00  0.0000E+00  0.0000E+00  0.0000E+00  0.0000E+00  0.0000E+00  0.0000E+00  0.0000E+00  0.0000E+00  0.0000E+00  0.0000E+00  0.0000E+00  0.1004E+06  0.1687E+05  0.0000E+00  0.0000E+00
REACH   11        0    11  0.4033E+04  0.1371E+02  0.1365E+02  0.6174E-01  0.0000E+00  0.6588E+05  0.3452E+04  0.9500E+02  0.2150E+06  0.2015E+06  0.3829E+05  0.3472E+05  0.8682E+03  0.9326E+03  0.1114E+05  0.2027E+05  0.2683E+03  0.6719E+03  0.4723E+02  0.1412E+03  0.3450E+03  0.0000E+00  0.1294E+08  0.8082E+07  0.4239E+06  0.4046E+06  0.0000E+00  0.0000E+00  0.0000E+00  0.0000E+00  0.0000E+00  0.0000E+00  0.0000E+00  0.0000E+00  0.0000E+00  0.0000E+00  0.0000E+00  0.0000E+00  0.0000E+00  0.0000E+00  0.0000E+00  0.0000E+00  0.0000E+00  0.2234E+06  0.3486E+05  0.0000E+00  0.0000E+00
REACH   12        0    11  0.4536E+04  0.1546E+02  0.1541E+02  0.4534E-01  0.0000E+00  0.3452E+04  0.4581E+04  0.1120E+03  0.2015E+06  0.1959E+06  0.3472E+05  0.3328E+05  0.1145E+04  0.1214E+04  0.2027E+05  0.2372E+05  0.6719E+03  0.8691E+03  0.1412E+03  0.4226E+03  0.5066E-13  0.0000E+00  0.8082E+07  0.6571E+07  0.4630E+06  0.4567E+06  0.0000E+00  0.0000E+00  0.0000E+00  0.0000E+00  0.0000E+00  0.0000E+00  0.0000E+00  0.0000E+00  0.0000E+00  0.0000E+00  0.0000E+00  0.0000E+00  0.0000E+00  0.0000E+00  0.0000E+00  0.0000E+00  0.0000E+00  0.2217E+06  0.3371E+05  0.0000E+00  0.0000E+00
REACH   13        0    11  0.3339E+03  0.1404E+01  0.1399E+01  0.5276E-02  0.0000E+00  0.5089E-06  0.5089E-06  0.1470E-06  0.7871E-02  0.6669E-02  0.4043E-02  0.1648E-02  0.1268E+03  0.1264E+03  0.0000E+00  0.2622E+01  0.0000E+00  0.0000E+00  0.9286E-03  0.0000E+00  0.1111E-12  0.0000E+00  0.0000E+00  0.0000E+00  0.4865E+05  0.4408E+05  0.0000E+00  0.0000E+00  0.0000E+00  0.0000E+00  0.0000E+00  0.0000E+00  0.0000E+00  0.0000E+00  0.0000E+00  0.0000E+00  0.0000E+00  0.0000E+00  0.0000E+00  0.0000E+00  0.0000E+00  0.0000E+00  0.0000E+00  0.1290E+03  0.1648E-02  0.0000E+00  0.0000E+00
REACH   14        0    11  0.4614E+04  0.1552E+02  0.1550E+02  0.1863E-01  0.0000E+00  0.4581E+04  0.4433E+04  0.1078E+03  0.1959E+06  0.1936E+06  0.3328E+05  0.3271E+05  0.1275E+04  0.1312E+04  0.2372E+05  0.2514E+05  0.8691E+03  0.9630E+03  0.4226E+03  0.8819E+03  0.1760E-13  0.0000E+00  0.6571E+07  0.6033E+07  0.4604E+06  0.4588E+06  0.0000E+00  0.0000E+00  0.0000E+00  0.0000E+00  0.0000E+00  0.0000E+00  0.0000E+00  0.0000E+00  0.0000E+00  0.0000E+00  0.0000E+00  0.0000E+00  0.0000E+00  0.0000E+00  0.0000E+00  0.0000E+00  0.0000E+00  0.2210E+06  0.3360E+05  0.0000E+00  0.0000E+00
REACH   15        0    11  0.8564E+04  0.2151E+02  0.2127E+02  0.2371E+00  0.0000E+00  0.5351E+04  0.5458E+04  0.9669E+02  0.1884E+06  0.1665E+06  0.3141E+05  0.2603E+05  0.3079E+04  0.3559E+04  0.2835E+05  0.4019E+05  0.1192E+04  0.2097E+04  0.1936E+04  0.5634E+04  0.4876E-10  0.0000E+00  0.4933E+07  0.2071E+07  0.6532E+06  0.6337E+06  0.0000E+00  0.0000E+00  0.0000E+00  0.0000E+00  0.0000E+00  0.0000E+00  0.0000E+00  0.0000E+00  0.0000E+00  0.0000E+00  0.0000E+00  0.0000E+00  0.0000E+00  0.0000E+00  0.0000E+00  0.0000E+00  0.0000E+00  0.2124E+06  0.3167E+05  0.0000E+00  0.0000E+00
REACH   16        0    11  0.4974E+04  0.1657E+02  0.1653E+02  0.4598E-01  0.0000E+00  0.4433E+04  0.4779E+04  0.1090E+03  0.1936E+06  0.1884E+06  0.3271E+05  0.3141E+05  0.1475E+04  0.1570E+04  0.2514E+05  0.2830E+05  0.9630E+03  0.1187E+04  0.8819E+03  0.1936E+04  0.1254E-10  0.0000E+00  0.6033E+07  0.4933E+07  0.4934E+06  0.4899E+06  0.0000E+00  0.0000E+00  0.0000E+00  0.0000E+00  0.0000E+00  0.0000E+00  0.0000E+00  0.0000E+00  0.0000E+00  0.0000E+00  0.0000E+00  0.0000E+00  0.0000E+00  0.0000E+00  0.0000E+00  0.0000E+00  0.0000E+00  0.2194E+06  0.3334E+05  0.0000E+00  0.0000E+00
REACH   17        0    11  0.2471E+04  0.3290E+01  0.3277E+01  0.1263E-01  0.0000E+00  0.5759E+03  0.5722E+03  0.6577E+02  0.8511E+00  0.8326E+00  0.1439E+00  0.1395E+00  0.1021E+04  0.1017E+04  0.4693E+02  0.5069E+02  0.4037E+01  0.4810E+01  0.2802E-01  0.8340E-01  0.8113E-11  0.0000E+00  0.0000E+00  0.0000E+00  0.1040E+06  0.1031E+06  0.0000E+00  0.0000E+00  0.0000E+00  0.0000E+00  0.0000E+00  0.0000E+00  0.0000E+00  0.0000E+00  0.0000E+00  0.0000E+00  0.0000E+00  0.0000E+00  0.0000E+00  0.0000E+00  0.0000E+00  0.0000E+00  0.0000E+00  0.1074E+04  0.2229E+00  0.0000E+00  0.0000E+00
REACH   18        0    11  0.2198E+03  0.8863E+00  0.8841E+00  0.2247E-02  0.0000E+00  0.7791E-06  0.7791E-06  0.3571E-06  0.6111E-03  0.0000E+00  0.1833E-02  0.3585E-03  0.9535E+02  0.9512E+02  0.0000E+00  0.9606E+00  0.0000E+00  0.0000E+00  0.6117E-03  0.0000E+00  0.4753E-11  0.0000E+00  0.0000E+00  0.0000E+00  0.2880E+05  0.2785E+05  0.0000E+00  0.0000E+00  0.0000E+00  0.0000E+00  0.0000E+00  0.0000E+00  0.0000E+00  0.0000E+00  0.0000E+00  0.0000E+00  0.0000E+00  0.0000E+00  0.0000E+00  0.0000E+00  0.0000E+00  0.0000E+00  0.0000E+00  0.9608E+02  0.3585E-03  0.0000E+00  0.0000E+00
REACH   19        0    11  0.2425E+04  0.3185E+01  0.3156E+01  0.2877E-01  0.0000E+00  0.2773E+03  0.5759E+03  0.6853E+02  0.8948E+00  0.8510E+00  0.1540E+00  0.1435E+00  0.1013E+04  0.1004E+04  0.3760E+02  0.4693E+02  0.2509E+01  0.4037E+01  0.1152E-01  0.2788E-01  0.3732E-10  0.0000E+00  0.0000E+00  0.0000E+00  0.1028E+06  0.9929E+05  0.0000E+00  0.0000E+00  0.0000E+00  0.0000E+00  0.0000E+00  0.0000E+00  0.0000E+00  0.0000E+00  0.0000E+00  0.0000E+00  0.0000E+00  0.0000E+00  0.0000E+00  0.0000E+00  0.0000E+00  0.0000E+00  0.0000E+00  0.1056E+04  0.1714E+00  0.0000E+00  0.0000E+00
REACH   20        0    11  0.3435E+03  0.3248E+00  0.3167E+00  0.8173E-02  0.0000E+00  0.6266E-06  0.6266E-06  0.8363E-06  0.9965E-03  0.5701E-03  0.2990E-02  0.2634E-02  0.1971E+03  0.1923E+03  0.0000E+00  0.3206E+01  0.0000E+00  0.0000E+00  0.9976E-03  0.2033E-02  0.4986E-10  0.0000E+00  0.0000E+00  0.0000E+00  0.1136E+05  0.9932E+04  0.0000E+00  0.0000E+00  0.0000E+00  0.0000E+00  0.0000E+00  0.0000E+00  0.0000E+00  0.0000E+00  0.0000E+00  0.0000E+00  0.0000E+00  0.0000E+00  0.0000E+00  0.0000E+00  0.0000E+00  0.0000E+00  0.0000E+00  0.1955E+03  0.4667E-02  0.0000E+00  0.0000E+00
REACH   21        0    11  0.1644E+04  0.2022E+01  0.1970E+01  0.5249E-01  0.0000E+00  0.1831E-05  0.2773E+03  0.5307E+02  0.1049E+01  0.8930E+00  0.1872E+00  0.1475E+00  0.5444E+03  0.5305E+03  0.1598E+02  0.3439E+02  0.0000E+00  0.2509E+01  0.3843E-02  0.8195E-02  0.7723E-10  0.0000E+00  0.0000E+00  0.0000E+00  0.6407E+05  0.6204E+05  0.0000E+00  0.0000E+00  0.0000E+00  0.0000E+00  0.0000E+00  0.0000E+00  0.0000E+00  0.0000E+00  0.0000E+00  0.0000E+00  0.0000E+00  0.0000E+00  0.0000E+00  0.0000E+00  0.0000E+00  0.0000E+00  0.0000E+00  0.5683E+03  0.1557E+00  0.0000E+00  0.0000E+00
REACH   22        0    11  0.6718E+03  0.7112E+00  0.6911E+00  0.2013E-01  0.0000E+00  0.4948E-06  0.4948E-06  0.2877E-06  0.1281E+01  0.1048E+01  0.2443E+00  0.1816E+00  0.1542E+03  0.1497E+03  0.0000E+00  0.1094E+02  0.0000E+00  0.0000E+00  0.1808E-02  0.2299E-02  0.9004E-08  0.0000E+00  0.0000E+00  0.0000E+00  0.2328E+05  0.2180E+05  0.0000E+00  0.0000E+00  0.0000E+00  0.0000E+00  0.0000E+00  0.0000E+00  0.0000E+00  0.0000E+00  0.0000E+00  0.0000E+00  0.0000E+00  0.0000E+00  0.0000E+00  0.0000E+00  0.0000E+00  0.0000E+00  0.0000E+00  0.1617E+03  0.1839E+00  0.0000E+00  0.0000E+00
REACH   23        0    11  0.3564E+03  0.1074E+01  0.1062E+01  0.1189E-01  0.0000E+00  0.5945E-06  0.5945E-06  0.2267E-06  0.9332E-03  0.0000E+00  0.2800E-02  0.1021E-02  0.7116E+02  0.7037E+02  0.0000E+00  0.5048E+01  0.0000E+00  0.0000E+00  0.9342E-03  0.0000E+00  0.6166E-10  0.0000E+00  0.0000E+00  0.0000E+00  0.3428E+05  0.3348E+05  0.0000E+00  0.0000E+00  0.0000E+00  0.0000E+00  0.0000E+00  0.0000E+00  0.0000E+00  0.0000E+00  0.0000E+00  0.0000E+00  0.0000E+00  0.0000E+00  0.0000E+00  0.0000E+00  0.0000E+00  0.0000E+00  0.0000E+00  0.7542E+02  0.1021E-02  0.0000E+00  0.0000E+00
