ERROR: Elevation Band Fractions in Subbasin    4 do not add up to 100% of subbasin area!
ERROR: Elevation Band Fractions in Subbasin   12 do not add up to 100% of subbasin area!
ERROR: Elevation Band Fractions in Subbasin   14 do not add up to 100% of subbasin area!
ERROR: Elevation Band Fractions in Subbasin   17 do not add up to 100% of subbasin area!
1
    SWAT Dec 11 2014    VER 2012/Rev 635                                                                 0/ 0/   0      0: 0: 0

    General Input/Output section (file.cio):                                        
    2020/2/22 0:00:00 ARCGIS-SWAT interface AV                                      
                                                                                    
         Number of years in run:    5
         Area of watershed:     9886.746 km2
         Random number generator cycles: 0, use default numbers

         Initial random number seed: wet/dry day prob        748932582
         Initial random number seed: radiation              1948832765
         Initial random number seed: precipitation           857034417
         Initial random number seed: 0.5 hr rainfall          67377721
         Initial random number seed: wind speed              366304404
         Initial random number seed: irrigation             1094585182
         Initial random number seed: relative humidity      1767585417
         Initial random number seed: max temperature         608439319
         Initial random number seed: min temperature         592757081

         Precipitation data used in run:
          Multiple gages read for watershed
             Daily rainfall data used

         Temperature data used in run:
          Multiple gages read for watershed

         PET method used: Penman-Monteith

         Rainfall/Runoff/Routing Option:
          Daily rainfall data
          Runoff estimated with curve number method
          Daily stream routing
           Variable Storage routing method
           Channel dimensions remain constant
           Subbasin algae/CBOD loadings not modeled
           In-stream nutrient transformations modeled using QUAL2E equations

         Subbasin Input Summary:
          Sub Latitude  Elev(m) #HRUs Ponds Elevbnds Wetlnd
            1    38.78  2411.51    26          x        
            2    38.78  3907.69    17          x        
            3    38.78  4003.38    19          x        
            4    38.78  2929.33    21          x        
            5    38.78  3599.90    45          x        
            6    38.78  2982.41     9          x        
            7    38.78  2975.71    46          x        
            8    38.78  3575.86    41          x        
            9    38.78  3813.06    20          x        
           10    38.78  4025.83    17          x        
           11    38.78  3650.15    25          x        
           12    38.78  3658.05    33          x        
           13    38.78  3919.09    22          x        
           14    38.78  3579.67    24          x        
           15    38.78  3390.67    36          x        
           16    38.78  3207.27    21          x        
           17    38.78  3306.65    50          x        
           18    38.78  3835.48    33          x        
           19    38.78  3586.31    57          x        
           20    38.78  3730.14    30          x        
           21    38.78  3429.18    30          x        
           22    38.78  3610.56    20          x        
           23    38.78  3779.19    25          x        

         HRU Input Summary Table 1:
          Sub   HRU   Area(ha) Slope SlpLgth(m) Ovrlnd_N CondII_CN TimeConc(hr) ESCO EPCO
            1      1      33.07 0.702       9.15    0.100     38.70        0.063 0.14 0.87
            1      2      10.17 0.252       9.15    0.100     38.70        0.081 0.14 0.87
            1      3      31.37 0.461       9.15    0.100     38.70        0.071 0.14 0.87
            1      4      84.78 0.700       9.15    0.100     38.70        0.069 0.14 0.87
            1      5     113.61 0.212      15.24    0.100     38.70        0.128 0.14 0.87
            1      6     225.52 0.448       9.15    0.100     38.70        0.092 0.14 0.87
            1      7      24.59 0.219      15.24    0.100     38.70        0.116 0.14 0.87
            1      8      76.30 0.752       9.15    0.100     38.70        0.067 0.14 0.87
            1      9     100.04 0.460       9.15    0.100     38.70        0.079 0.14 0.87
            1     10    1068.80 0.446       9.15    0.150     52.67        0.182 0.14 0.87
            1     11     498.10 0.719       9.15    0.150     52.67        0.124 0.14 0.87
            1     12     655.97 0.210      15.24    0.150     52.67        0.209 0.14 0.87
            1     13    2585.05 0.801       9.15    0.150     52.67        0.281 0.14 0.87
            1     14    2557.19 0.452       9.15    0.150     52.67        0.293 0.14 0.87
            1     15    1474.88 0.191      18.29    0.150     52.67        0.296 0.14 0.87
            1     16     308.99 0.765       9.15    0.150     52.67        0.105 0.14 0.87
            1     17     894.04 0.161      18.29    0.150     52.67        0.259 0.14 0.87
            1     18     411.99 0.437       9.15    0.150     52.67        0.128 0.14 0.87
            1     19     207.00 0.435       9.15    0.010     98.00        0.040 0.14 0.87
            1     20     141.06 0.198      18.29    0.010     98.00        0.049 0.14 0.87
            1     21      66.77 0.732       9.15    0.010     98.00        0.023 0.14 0.87
            1     22     313.83 0.185      18.29    0.010     98.00        0.066 0.14 0.87
            1     23     254.57 0.418       9.15    0.010     98.00        0.045 0.14 0.87
            1     24     121.03 0.806       9.15    0.010     98.00        0.028 0.14 0.87
            1     25      92.29 0.148      24.39    0.010     98.00        0.054 0.14 0.87
            1     26      23.73 0.438       9.15    0.010     98.00        0.020 0.14 0.87
            2     27     500.49 0.397       9.15    0.150     52.67        0.148 0.14 0.87
            2     28    1396.11 0.183      18.29    0.150     52.67        0.314 0.14 0.87
            2     29   25507.55 0.089      60.98    0.150     84.93        2.273 0.14 0.87
            2     30    2341.43 0.069      60.98    0.150     90.30        0.696 0.14 0.87
            2     31     684.87 0.015     121.95    0.010     98.00        0.298 0.14 0.87
            2     32     543.59 0.013     121.95    0.010     98.00        0.294 0.14 0.87
            2     33    1645.17 0.196      18.29    0.140     82.78        0.327 0.14 0.87
            2     34    2175.23 0.435       9.15    0.140     82.78        0.296 0.14 0.87
            2     35     476.71 0.677       9.15    0.140     82.78        0.129 0.14 0.87
            2     36     285.82 0.421       9.15    0.140     97.82        0.120 0.14 0.87
            2     37     287.57 0.155      24.39    0.140     97.82        0.240 0.14 0.87
            2     38     315.03 0.083      60.98    0.140     98.00        0.464 0.14 0.87
            2     39      59.86 0.421       9.15    0.050     52.67        0.054 0.14 0.87
            2     40     300.17 0.143      24.39    0.050     52.67        0.150 0.14 0.87
            2     41     905.93 0.082      60.98    0.050     84.93        0.329 0.14 0.87
            2     42     534.22 0.017     121.95    0.050     52.67        0.621 0.14 0.87
            2     43     522.56 0.044      91.46    0.050     90.30        0.415 0.14 0.87
            3     44    7503.94 0.168      18.29    0.150     52.67        0.550 0.14 0.87
            3     45    2795.58 0.403       9.15    0.150     52.67        0.247 0.14 0.87
            3     46   22924.79 0.043      91.46    0.150     84.93        1.687 0.14 0.87
            3     47   58915.05 0.084      60.98    0.150     90.30        2.724 0.14 0.87
            3     48     399.47 0.152      24.39    0.010     98.00        0.071 0.14 0.87
            3     49     247.85 0.445       9.15    0.010     98.00        0.036 0.14 0.87
            3     50     145.66 0.731       9.15    0.010     98.00        0.026 0.14 0.87
            3     51    3188.11 0.016     121.95    0.010     98.00        0.394 0.14 0.87
            3     52     914.79 0.013     121.95    0.010     98.00        0.290 0.14 0.87
            3     53    2887.44 0.048      91.46    0.010     98.00        0.294 0.14 0.87
            3     54    7264.15 0.191      18.29    0.140     82.78        0.526 0.14 0.87
            3     55    2339.47 0.695       9.15    0.140     82.78        0.208 0.14 0.87
            3     56    8415.65 0.434       9.15    0.140     82.78        0.499 0.14 0.87
            3     57    2798.78 0.126      24.39    0.140     97.82        0.375 0.14 0.87
            3     58    1800.26 0.413       9.15    0.140     97.82        0.192 0.14 0.87
            3     59    1716.14 0.140      24.39    0.140     98.00        0.313 0.14 0.87
            3     60     591.19 0.399       9.15    0.140     98.00        0.126 0.14 0.87
            3     61    5160.16 0.032      91.46    0.050     84.93        0.660 0.14 0.87
            3     62   17126.03 0.081      60.98    0.050     90.30        1.005 0.14 0.87
            4     63     586.86 0.426       9.15    0.100     38.70        0.114 0.14 0.87
            4     64     282.57 0.814       9.15    0.100     38.70        0.080 0.14 0.87
            4     65     420.50 0.205      15.24    0.100     38.70        0.150 0.14 0.87
            4     66     127.91 0.216      15.24    0.100     64.50        0.126 0.14 0.87
            4     67      76.91 0.724       9.15    0.100     64.50        0.066 0.14 0.87
            4     68     173.05 0.417       9.15    0.100     64.50        0.084 0.14 0.87
            4     69    4047.80 0.836       9.15    0.150     52.67        0.322 0.14 0.87
            4     70    3465.64 0.192      18.29    0.150     52.67        0.386 0.14 0.87
            4     71    4008.48 0.440       9.15    0.150     52.67        0.335 0.14 0.87
            4     72     121.39 0.198      18.29    0.150     52.67        0.177 0.14 0.87
            4     73     453.08 0.794       9.15    0.150     52.67        0.109 0.14 0.87
            4     74     291.51 0.463       9.15    0.150     52.67        0.110 0.14 0.87
            4     75     677.06 0.421       9.15    0.150     74.18        0.140 0.14 0.87
            4     76     657.39 0.185      18.29    0.150     74.18        0.220 0.14 0.87
            4     77     241.93 0.741       9.15    0.150     74.18        0.095 0.14 0.87
            4     78      73.46 0.454       9.15    0.010     98.00        0.024 0.14 0.87
            4     79      30.05 0.775       9.15    0.010     98.00        0.018 0.14 0.87
            4     80      80.13 0.178      18.29    0.010     98.00        0.042 0.14 0.87
            4     81      40.90 0.446       9.15    0.010     98.00        0.021 0.14 0.87
            4     82      29.22 0.150      24.39    0.010     98.00        0.045 0.14 0.87
            4     83      10.02 0.659       9.15    0.010     98.00        0.016 0.14 0.87
            5     84     220.77 0.166      18.29    0.100     78.48        0.166 0.14 0.87
            5     85     144.02 0.708       9.15    0.100     78.48        0.079 0.14 0.87
            5     86     238.88 0.449       9.15    0.100     78.48        0.099 0.14 0.87
            5     87     195.76 0.460       9.15    0.100     38.70        0.093 0.14 0.87
            5     88     150.05 0.710       9.15    0.100     38.70        0.080 0.14 0.87
            5     89      56.06 0.215      15.24    0.100     38.70        0.122 0.14 0.87
            5     90     236.29 0.456       9.15    0.100     38.70        0.098 0.14 0.87
            5     91     265.61 0.795       9.15    0.100     38.70        0.091 0.14 0.87
            5     92      93.14 0.206      15.24    0.100     38.70        0.129 0.14 0.87
            5     93    2993.40 0.180      18.29    0.150     84.93        0.460 0.14 0.87
            5     94    1546.74 0.729       9.15    0.150     84.93        0.236 0.14 0.87
            5     95    3072.93 0.442       9.15    0.150     84.93        0.382 0.14 0.87
            5     96    2182.95 0.458       9.15    0.150     52.67        0.305 0.14 0.87
            5     97    1635.20 0.739       9.15    0.150     52.67        0.244 0.14 0.87
            5     98     671.06 0.214      15.24    0.150     52.67        0.223 0.14 0.87
            5     99    1021.33 0.206      15.24    0.150     52.67        0.260 0.14 0.87
            5    100    3149.77 0.780       9.15    0.150     52.67        0.375 0.14 0.87
            5    101    3354.39 0.462       9.15    0.150     52.67        0.405 0.14 0.87
            5    102      13.90 0.821       9.15    0.010     98.00        0.017 0.14 0.87
            5    103      24.32 0.174      18.29    0.010     98.00        0.038 0.14 0.87
            5    104      25.19 0.438       9.15    0.010     98.00        0.021 0.14 0.87
            5    105      48.50 0.409       9.15    0.010     98.00        0.025 0.14 0.87
            5    106     184.30 0.139      24.39    0.010     98.00        0.068 0.14 0.87
            5    107      12.16 0.702       9.15    0.010     98.00        0.017 0.14 0.87
            5    108      41.70 0.440       9.15    0.010     98.00        0.024 0.14 0.87
            5    109      39.96 0.172      18.29    0.010     98.00        0.041 0.14 0.87
            5    110      38.22 0.726       9.15    0.010     98.00        0.021 0.14 0.87
            5    111      54.72 0.165      18.29    0.010     98.00        0.043 0.14 0.87
            5    112      47.78 0.452       9.15    0.010     98.00        0.025 0.14 0.87
            5    113     367.44 0.713       9.15    0.140     82.78        0.118 0.14 0.87
            5    114     670.73 0.446       9.15    0.140     82.78        0.160 0.14 0.87
            5    115     329.11 0.208      15.24    0.140     82.78        0.182 0.14 0.87
            5    116    1511.43 0.459       9.15    0.140     97.82        0.241 0.14 0.87
            5    117    1225.64 0.732       9.15    0.140     97.82        0.203 0.14 0.87
            5    118     414.94 0.211      15.24    0.140     97.82        0.191 0.14 0.87
            5    119      94.98 0.707       9.15    0.140     82.78        0.086 0.14 0.87
            5    120      34.16 0.204      15.24    0.140     82.78        0.147 0.14 0.87
            5    121     132.48 0.478       9.15    0.140     82.78        0.099 0.14 0.87
            5    122     127.48 0.480       9.15    0.140     82.78        0.099 0.14 0.87
            5    123      26.66 0.167      18.29    0.140     82.78        0.172 0.14 0.87
            5    124     105.82 0.706       9.15    0.140     82.78        0.087 0.14 0.87
            5    125      81.70 0.421       9.15    0.050     84.93        0.057 0.14 0.87
            5    126     212.42 0.147      24.39    0.050     84.93        0.140 0.14 0.87
            5    127      10.83 0.373       9.15    0.050     84.93        0.049 0.14 0.87
            5    128      15.00 0.175      18.29    0.050     84.93        0.092 0.14 0.87
            6    129     115.36 0.745       9.15    0.100     38.70        0.074 0.14 0.87
            6    130      34.34 0.217      15.24    0.100     38.70        0.119 0.14 0.87
            6    131      81.02 0.460       9.15    0.100     38.70        0.079 0.14 0.87
            6    132     921.99 0.210      15.24    0.150     52.67        0.249 0.14 0.87
            6    133    2135.85 0.772       9.15    0.150     52.67        0.288 0.14 0.87
            6    134    2601.13 0.451       9.15    0.150     52.67        0.342 0.14 0.87
            6    135      33.16 0.451       9.15    0.140     82.78        0.088 0.14 0.87
            6    136      86.38 0.766       9.15    0.140     82.78        0.083 0.14 0.87
            6    137      14.83 0.183      18.29    0.140     82.78        0.165 0.14 0.87
            7    138      58.26 0.482       9.15    0.100     38.70        0.071 0.14 0.87
            7    139      97.09 0.756       9.15    0.100     38.70        0.066 0.14 0.87
            7    140     155.35 0.131      24.39    0.100     38.70        0.189 0.14 0.87
            7    141      66.22 0.736       9.15    0.100     38.70        0.064 0.14 0.87
            7    142     135.83 0.451       9.15    0.100     38.70        0.079 0.14 0.87
            7    143      38.20 0.472       9.15    0.100     38.70        0.070 0.14 0.87
            7    144      16.13 0.719       9.15    0.100     38.70        0.060 0.14 0.87
            7    145      14.43 0.186      18.29    0.100     38.70        0.134 0.14 0.87
            7    146     162.14 0.461       9.15    0.100     64.50        0.081 0.14 0.87
            7    147      45.84 0.220      15.24    0.100     64.50        0.118 0.14 0.87
            7    148     174.03 0.747       9.15    0.100     64.50        0.073 0.14 0.87
            7    149    1330.78 0.471       9.15    0.150     84.93        0.175 0.14 0.87
            7    150    1434.89 0.743       9.15    0.150     84.93        0.170 0.14 0.87
            7    151    1961.89 0.743       9.15    0.150     52.67        0.201 0.14 0.87
            7    152    2027.54 0.464       9.15    0.150     52.67        0.216 0.14 0.87
            7    153     547.92 0.217      15.24    0.150     52.67        0.186 0.14 0.87
            7    154    2098.24 0.753       9.15    0.150     52.67        0.208 0.14 0.87
            7    155    5512.83 0.439       9.15    0.150     52.67        0.401 0.14 0.87
            7    156    3437.31 0.193      18.29    0.150     52.67        0.375 0.14 0.87
            7    157     931.71 0.198      18.29    0.150     52.67        0.232 0.14 0.87
            7    158    1638.70 0.446       9.15    0.150     52.67        0.195 0.14 0.87
            7    159     913.19 0.752       9.15    0.150     52.67        0.138 0.14 0.87
            7    160    1052.07 0.204      15.24    0.150     74.18        0.221 0.14 0.87
            7    161    1599.14 0.740       9.15    0.150     74.18        0.180 0.14 0.87
            7    162    2408.81 0.451       9.15    0.150     74.18        0.238 0.14 0.87
            7    163      24.17 0.711       9.15    0.010     98.00        0.017 0.14 0.87
            7    164      63.34 0.425       9.15    0.010     98.00        0.023 0.14 0.87
            7    165      33.34 0.201      15.24    0.010     98.00        0.033 0.14 0.87
            7    166      65.58 0.162      18.29    0.010     98.00        0.041 0.14 0.87
            7    167      23.61 0.406       9.15    0.010     98.00        0.020 0.14 0.87
            7    168     247.68 0.096      60.98    0.010     98.00        0.104 0.14 0.87
            7    169      34.05 0.410       9.15    0.010     98.00        0.021 0.14 0.87
            7    170      12.25 0.387       9.15    0.010     98.00        0.019 0.14 0.87
            7    171      75.26 0.092      60.98    0.010     98.00        0.092 0.14 0.87
            7    172      14.34 0.389       9.15    0.010     98.00        0.019 0.14 0.87
            7    173      54.84 0.148      24.39    0.010     98.00        0.048 0.14 0.87
            7    174     183.53 0.467       9.15    0.140     82.78        0.097 0.14 0.87
            7    175     242.91 0.734       9.15    0.140     82.78        0.091 0.14 0.87
            7    176    1124.12 0.736       9.15    0.140     97.82        0.149 0.14 0.87
            7    177     904.63 0.467       9.15    0.140     97.82        0.146 0.14 0.87
            7    178      74.87 0.487       9.15    0.140     82.78        0.087 0.14 0.87
            7    179     134.60 0.742       9.15    0.140     82.78        0.083 0.14 0.87
            7    180      18.34 0.372       9.15    0.140     72.03        0.089 0.14 0.87
            7    181     132.52 0.113      60.98    0.140     72.03        0.399 0.14 0.87
            7    182     228.17 0.120      60.98    0.140     72.03        0.400 0.14 0.87
            7    183      32.71 0.394       9.15    0.140     72.03        0.089 0.14 0.87
            8    184      45.88 0.193      18.29    0.100     78.48        0.135 0.14 0.87
            8    185      16.99 0.806       9.15    0.100     78.48        0.058 0.14 0.87
            8    186      46.73 0.423       9.15    0.100     78.48        0.072 0.14 0.87
            8    187     106.06 0.464       9.15    0.100     38.70        0.074 0.14 0.87
            8    188      91.05 0.735       9.15    0.100     38.70        0.065 0.14 0.87
            8    189     169.07 0.471       9.15    0.100     38.70        0.078 0.14 0.87
            8    190     259.98 0.789       9.15    0.100     38.70        0.074 0.14 0.87
            8    191      59.47 0.203      15.24    0.100     38.70        0.120 0.14 0.87
            8    192      60.82 0.752       9.15    0.100     64.50        0.062 0.14 0.87
            8    193      15.64 0.499       9.15    0.100     64.50        0.066 0.14 0.87
            8    194     415.55 0.714       9.15    0.150     52.67        0.101 0.14 0.87
            8    195    1121.99 0.428       9.15    0.150     52.67        0.150 0.14 0.87
            8    196     739.51 0.212      15.24    0.150     52.67        0.189 0.14 0.87
            8    197    7290.81 0.434       9.15    0.150     84.93        0.413 0.14 0.87
            8    198    5712.56 0.199      18.29    0.150     84.93        0.429 0.14 0.87
            8    199    2890.20 0.730       9.15    0.150     84.93        0.219 0.14 0.87
            8    200     945.59 0.743       9.15    0.150     52.67        0.128 0.14 0.87
            8    201    1909.84 0.205      15.24    0.150     52.67        0.248 0.14 0.87
            8    202    2361.86 0.427       9.15    0.150     52.67        0.208 0.14 0.87
            8    203    3486.39 0.784       9.15    0.150     52.67        0.243 0.14 0.87
            8    204    3873.11 0.450       9.15    0.150     52.67        0.273 0.14 0.87
            8    205    1775.00 0.204      15.24    0.150     52.67        0.242 0.14 0.87
            8    206       6.67 0.202      15.24    0.010     98.00        0.030 0.14 0.87
            8    207      20.02 0.446       9.15    0.010     98.00        0.019 0.14 0.87
            8    208      24.19 0.731       9.15    0.010     98.00        0.017 0.14 0.87
            8    209      90.19 0.421       9.15    0.010     98.00        0.024 0.14 0.87
            8    210     239.31 0.149      24.39    0.010     98.00        0.059 0.14 0.87
            8    211      34.20 0.416       9.15    0.010     98.00        0.020 0.14 0.87
            8    212      14.18 0.668       9.15    0.010     98.00        0.016 0.14 0.87
            8    213      51.72 0.168      18.29    0.010     98.00        0.039 0.14 0.87
            8    214      49.22 0.840       9.15    0.010     98.00        0.018 0.14 0.87
            8    215      34.20 0.438       9.15    0.010     98.00        0.020 0.14 0.87
            8    216      18.35 0.160      24.39    0.010     98.00        0.043 0.14 0.87
            8    217     692.50 0.213      15.24    0.140     82.78        0.181 0.14 0.87
            8    218    1811.02 0.733       9.15    0.140     82.78        0.167 0.14 0.87
            8    219    2249.11 0.462       9.15    0.140     82.78        0.198 0.14 0.87
            8    220     349.27 0.217      15.24    0.140     97.82        0.161 0.14 0.87
            8    221    1582.48 0.467       9.15    0.140     97.82        0.167 0.14 0.87
            8    222    1415.18 0.716       9.15    0.140     97.82        0.149 0.14 0.87
            8    223     362.01 0.750       9.15    0.140     82.78        0.094 0.14 0.87
            8    224     204.58 0.471       9.15    0.140     82.78        0.095 0.14 0.87
            9    225    1363.92 0.208      15.24    0.150     52.67        0.262 0.14 0.87
            9    226    2265.14 0.424       9.15    0.150     52.67        0.267 0.14 0.87
            9    227    9771.13 0.407       9.15    0.150     84.93        0.736 0.14 0.87
            9    228   28357.56 0.144      24.39    0.150     84.93        1.862 0.14 0.87
            9    229    8839.63 0.107      60.98    0.150     52.67        1.004 0.14 0.87
            9    230      98.06 0.176      18.29    0.010     98.00        0.045 0.14 0.87
            9    231      71.24 0.760       9.15    0.010     98.00        0.023 0.14 0.87
            9    232      97.22 0.436       9.15    0.010     98.00        0.028 0.14 0.87
            9    233    1158.27 0.073      60.98    0.010     98.00        0.191 0.14 0.87
            9    234     513.76 0.035      91.46    0.010     98.00        0.193 0.14 0.87
            9    235    2334.13 0.213      15.24    0.140     82.78        0.324 0.14 0.87
            9    236    6178.53 0.447       9.15    0.140     82.78        0.516 0.14 0.87
            9    237    2175.73 0.709       9.15    0.140     82.78        0.246 0.14 0.87
            9    238    1432.32 0.196      18.29    0.140     97.82        0.280 0.14 0.87
            9    239     823.86 0.691       9.15    0.140     97.82        0.146 0.14 0.87
            9    240    2980.31 0.446       9.15    0.140     97.82        0.311 0.14 0.87
            9    241     258.19 0.162      18.29    0.050     52.67        0.118 0.14 0.87
            9    242      81.80 0.395       9.15    0.050     52.67        0.056 0.14 0.87
            9    243    4149.24 0.079      60.98    0.050     84.93        0.539 0.14 0.87
            9    244     520.14 0.059      60.98    0.050     52.67        0.303 0.14 0.87
           10    245    3959.26 0.417       9.15    0.150     52.67        0.300 0.14 0.87
           10    246    4739.95 0.183      18.29    0.150     52.67        0.418 0.14 0.87
           10    247   40648.43 0.166      18.29    0.150     84.93        1.806 0.14 0.87
           10    248   11183.46 0.395       9.15    0.150     84.93        0.616 0.14 0.87
           10    249     166.68 0.754       9.15    0.010     98.00        0.028 0.14 0.87
           10    250     440.46 0.150      24.39    0.010     98.00        0.073 0.14 0.87
           10    251     306.59 0.431       9.15    0.010     98.00        0.040 0.14 0.87
           10    252    2731.72 0.107      60.98    0.010     98.00        0.234 0.14 0.87
           10    253    3662.16 0.702       9.15    0.140     82.78        0.270 0.14 0.87
           10    254    8899.33 0.448       9.15    0.140     82.78        0.514 0.14 0.87
           10    255    3933.16 0.205      15.24    0.140     82.78        0.352 0.14 0.87
           10    256    4066.02 0.444       9.15    0.140     97.82        0.300 0.14 0.87
           10    257    1756.28 0.208      15.24    0.140     97.82        0.245 0.14 0.87
           10    258    1319.85 0.692       9.15    0.140     97.82        0.153 0.14 0.87
           10    259    1854.33 0.117      60.98    0.050     52.67        0.316 0.14 0.87
           10    260     210.17 0.412       9.15    0.050     52.67        0.062 0.14 0.87
           10    261   10885.57 0.115      60.98    0.050     84.93        0.723 0.14 0.87
           11    262     277.13 0.690       9.15    0.150     52.67        0.104 0.14 0.87
           11    263    1591.35 0.431       9.15    0.150     52.67        0.219 0.14 0.87
           11    264     697.06 0.221      15.24    0.150     52.67        0.208 0.14 0.87
           11    265    9491.83 0.418       9.15    0.150     84.93        0.720 0.14 0.87
           11    266   10842.08 0.196      18.29    0.150     84.93        0.877 0.14 0.87
           11    267    3016.82 0.407       9.15    0.150     52.67        0.320 0.14 0.87
           11    268    5776.41 0.168      18.29    0.150     52.67        0.584 0.14 0.87
           11    269      35.08 0.405       9.15    0.010     98.00        0.022 0.14 0.87
           11    270      59.04 0.199      18.29    0.010     98.00        0.040 0.14 0.87
           11    271      68.46 0.381       9.15    0.010     98.00        0.026 0.14 0.87
           11    272     373.58 0.152      24.39    0.010     98.00        0.079 0.14 0.87
           11    273     489.94 0.077      60.98    0.010     98.00        0.136 0.14 0.87
           11    274    3127.82 0.461       9.15    0.140     82.78        0.321 0.14 0.87
           11    275    1713.25 0.709       9.15    0.140     82.78        0.213 0.14 0.87
           11    276     859.98 0.216      15.24    0.140     82.78        0.216 0.14 0.87
           11    277     547.87 0.696       9.15    0.140     97.82        0.124 0.14 0.87
           11    278     896.06 0.461       9.15    0.140     97.82        0.162 0.14 0.87
           11    279     236.60 0.212      15.24    0.140     97.82        0.165 0.14 0.87
           11    280      97.99 0.410       9.15    0.050     52.67        0.057 0.14 0.87
           11    281      60.58 0.218      15.24    0.050     52.67        0.082 0.14 0.87
           11    282     785.97 0.423       9.15    0.050     84.93        0.117 0.14 0.87
           11    283     977.62 0.199      18.29    0.050     84.93        0.172 0.14 0.87
           11    284      52.02 0.225      15.24    0.050     52.67        0.081 0.14 0.87
           11    285     145.15 0.440       9.15    0.050     52.67        0.061 0.14 0.87
           11    286      53.70 0.689       9.15    0.050     52.67        0.046 0.14 0.87
           12    287      33.33 0.706       9.15    0.100     78.48        0.063 0.14 0.87
           12    288     169.97 0.407       9.15    0.100     78.48        0.088 0.14 0.87
           12    289     105.82 0.228      15.24    0.100     78.48        0.124 0.14 0.87
           12    290      35.83 0.709       9.15    0.100     38.70        0.063 0.14 0.87
           12    291     114.98 0.437       9.15    0.100     38.70        0.081 0.14 0.87
           12    292      71.66 0.206      15.24    0.100     38.70        0.124 0.14 0.87
           12    293     133.31 0.438       9.15    0.100     64.50        0.083 0.14 0.87
           12    294      51.66 0.717       9.15    0.100     64.50        0.065 0.14 0.87
           12    295      72.49 0.206      15.24    0.100     64.50        0.124 0.14 0.87
           12    296     149.19 0.231      15.24    0.150     52.67        0.159 0.14 0.87
           12    297     412.67 0.435       9.15    0.150     52.67        0.128 0.14 0.87
           12    298     125.63 0.727       9.15    0.150     52.67        0.089 0.14 0.87
           12    299    2316.34 0.212      15.24    0.150     84.93        0.333 0.14 0.87
           12    300     937.01 0.681       9.15    0.150     84.93        0.160 0.14 0.87
           12    301    3904.19 0.439       9.15    0.150     84.93        0.382 0.14 0.87
           12    302     581.92 0.709       9.15    0.150     52.67        0.131 0.14 0.87
           12    303    1758.85 0.443       9.15    0.150     52.67        0.233 0.14 0.87
           12    304    1039.95 0.194      18.29    0.150     52.67        0.260 0.14 0.87
           12    305      91.31 0.426       9.15    0.010     98.00        0.028 0.14 0.87
           12    306      84.00 0.201      15.24    0.010     98.00        0.039 0.14 0.87
           12    307      72.13 0.762       9.15    0.010     98.00        0.023 0.14 0.87
           12    308     119.12 0.179      18.29    0.010     98.00        0.048 0.14 0.87
           12    309      43.40 0.409       9.15    0.010     98.00        0.023 0.14 0.87
           12    310     133.59 0.134      24.39    0.010     98.00        0.059 0.14 0.87
           12    311      28.03 0.416       9.15    0.010     98.00        0.021 0.14 0.87
           12    312    1096.50 0.760       9.15    0.140     82.78        0.168 0.14 0.87
           12    313     352.45 0.212      15.24    0.140     82.78        0.176 0.14 0.87
           12    314     980.68 0.456       9.15    0.140     82.78        0.170 0.14 0.87
           12    315     203.30 0.217      15.24    0.140     97.82        0.161 0.14 0.87
           12    316     821.54 0.473       9.15    0.140     97.82        0.157 0.14 0.87
           12    317     644.90 0.717       9.15    0.140     97.82        0.133 0.14 0.87
           12    318     353.74 0.392       9.15    0.050     84.93        0.082 0.14 0.87
           12    319     360.31 0.223      15.24    0.050     84.93        0.111 0.14 0.87
           13    320    2326.65 0.209      15.24    0.150     52.67        0.302 0.14 0.87
           13    321    2571.36 0.413       9.15    0.150     52.67        0.258 0.14 0.87
           13    322    5928.44 0.430       9.15    0.150     84.93        0.440 0.14 0.87
           13    323    1850.40 0.712       9.15    0.150     84.93        0.202 0.14 0.87
           13    324    5879.54 0.188      18.29    0.150     84.93        0.519 0.14 0.87
           13    325     304.15 0.172      18.29    0.010     98.00        0.060 0.14 0.87
           13    326     164.48 0.414       9.15    0.010     98.00        0.033 0.14 0.87
           13    327     150.33 0.416       9.15    0.010     98.00        0.031 0.14 0.87
           13    328     620.97 0.130      24.39    0.010     98.00        0.093 0.14 0.87
           13    329     101.73 0.074      60.98    0.010     98.00        0.100 0.14 0.87
           13    330    4637.85 0.451       9.15    0.140     82.78        0.367 0.14 0.87
           13    331    1603.48 0.213      15.24    0.140     82.78        0.252 0.14 0.87
           13    332    1888.66 0.707       9.15    0.140     82.78        0.201 0.14 0.87
           13    333     281.00 0.220      15.24    0.140     97.82        0.163 0.14 0.87
           13    334    1259.10 0.465       9.15    0.140     97.82        0.172 0.14 0.87
           13    335    1024.79 0.715       9.15    0.140     97.82        0.147 0.14 0.87
           13    336     753.35 0.167      18.29    0.050     84.93        0.148 0.14 0.87
           13    337     703.37 0.447       9.15    0.050     84.93        0.099 0.14 0.87
           13    338     288.54 0.724       9.15    0.050     84.93        0.063 0.14 0.87
           13    339      78.93 0.426       9.15    0.050     52.67        0.053 0.14 0.87
           13    340      20.17 0.751       9.15    0.050     52.67        0.040 0.14 0.87
           13    341      35.96 0.179      18.29    0.050     52.67        0.092 0.14 0.87
           14    342      79.12 0.426       9.15    0.100     78.48        0.079 0.14 0.87
           14    343      53.32 0.727       9.15    0.100     78.48        0.066 0.14 0.87
           14    344     186.62 0.181      18.29    0.100     78.48        0.157 0.14 0.87
           14    345      63.64 0.418       9.15    0.100     38.70        0.078 0.14 0.87
           14    346      14.62 0.697       9.15    0.100     38.70        0.061 0.14 0.87
           14    347      34.40 0.167      18.29    0.100     38.70        0.142 0.14 0.87
           14    348     963.83 0.701       9.15    0.150     84.93        0.175 0.14 0.87
           14    349    1159.23 0.207      15.24    0.150     84.93        0.264 0.14 0.87
           14    350    2170.38 0.445       9.15    0.150     84.93        0.289 0.14 0.87
           14    351     304.17 0.410       9.15    0.150     52.67        0.124 0.14 0.87
           14    352     593.08 0.156      24.39    0.150     52.67        0.277 0.14 0.87
           14    353      54.31 0.441       9.15    0.010     98.00        0.025 0.14 0.87
           14    354      11.03 0.677       9.15    0.010     98.00        0.017 0.14 0.87
           14    355      44.13 0.210      15.24    0.010     98.00        0.035 0.14 0.87
           14    356      12.18 0.393       9.15    0.010     98.00        0.020 0.14 0.87
           14    357      57.41 0.102      60.98    0.010     98.00        0.090 0.14 0.87
           14    358     118.57 0.768       9.15    0.140     82.78        0.086 0.14 0.87
           14    359      57.97 0.483       9.15    0.140     82.78        0.089 0.14 0.87
           14    360     304.55 0.221      15.24    0.140     97.82        0.174 0.14 0.87
           14    361     932.88 0.448       9.15    0.140     97.82        0.179 0.14 0.87
           14    362     440.92 0.715       9.15    0.140     97.82        0.122 0.14 0.87
           14    363      86.55 0.373       9.15    0.050     84.93        0.059 0.14 0.87
           14    364     164.45 0.212      15.24    0.050     84.93        0.096 0.14 0.87
           14    365     140.56 0.042      91.46    0.140     72.03        0.683 0.14 0.87
           15    366     380.22 0.210      15.24    0.100     78.48        0.132 0.14 0.87
           15    367    1367.24 0.460       9.15    0.100     78.48        0.122 0.14 0.87
           15    368    1461.00 0.748       9.15    0.100     78.48        0.116 0.14 0.87
           15    369    2375.10 0.463       9.15    0.100     38.70        0.156 0.14 0.87
           15    370    3042.67 0.799       9.15    0.100     38.70        0.168 0.14 0.87
           15    371     771.73 0.192      18.29    0.100     38.70        0.165 0.14 0.87
           15    372     601.59 0.739       9.15    0.100     64.50        0.085 0.14 0.87
           15    373     664.96 0.469       9.15    0.100     64.50        0.096 0.14 0.87
           15    374     204.00 0.199      18.29    0.100     64.50        0.140 0.14 0.87
           15    375   14314.68 0.457       9.15    0.150     84.93        0.516 0.14 0.87
           15    376    4860.25 0.215      15.24    0.150     84.93        0.312 0.14 0.87
           15    377   11326.68 0.745       9.15    0.150     84.93        0.424 0.14 0.87
           15    378    7670.87 0.200      15.24    0.150     52.67        0.398 0.14 0.87
           15    379   16372.43 0.455       9.15    0.150     52.67        0.570 0.14 0.87
           15    380   20389.30 0.801       9.15    0.150     52.67        0.659 0.14 0.87
           15    381    2753.62 0.460       9.15    0.150     74.18        0.187 0.14 0.87
           15    382    3454.93 0.782       9.15    0.150     74.18        0.197 0.14 0.87
           15    383     778.22 0.212      15.24    0.150     74.18        0.179 0.14 0.87
           15    384      31.99 0.872       9.15    0.010     98.00        0.016 0.14 0.87
           15    385      33.68 0.173      18.29    0.010     98.00        0.036 0.14 0.87
           15    386      42.94 0.453       9.15    0.010     98.00        0.019 0.14 0.87
           15    387     111.99 0.739       9.15    0.010     98.00        0.021 0.14 0.87
           15    388     165.04 0.208      15.24    0.010     98.00        0.037 0.14 0.87
           15    389     293.04 0.450       9.15    0.010     98.00        0.031 0.14 0.87
           15    390     311.56 0.435       9.15    0.010     98.00        0.032 0.14 0.87
           15    391     689.65 0.116      60.98    0.010     98.00        0.109 0.14 0.87
           15    392     179.36 0.787       9.15    0.010     98.00        0.024 0.14 0.87
           15    393      41.26 0.437       9.15    0.010     98.00        0.020 0.14 0.87
           15    394      29.48 0.747       9.15    0.010     98.00        0.016 0.14 0.87
           15    395      42.94 0.184      18.29    0.010     98.00        0.036 0.14 0.87
           15    396    3286.50 0.457       9.15    0.140     82.78        0.200 0.14 0.87
           15    397    3260.58 0.791       9.15    0.140     82.78        0.187 0.14 0.87
           15    398    1211.10 0.205      15.24    0.140     82.78        0.191 0.14 0.87
           15    399    1490.86 0.208      15.24    0.140     97.82        0.200 0.14 0.87
           15    400    5642.57 0.466       9.15    0.140     97.82        0.272 0.14 0.87
           15    401    5008.86 0.739       9.15    0.140     97.82        0.243 0.14 0.87
           16    402      89.13 0.207      15.24    0.100     78.48        0.126 0.14 0.87
           16    403      82.28 0.389       9.15    0.100     78.48        0.080 0.14 0.87
           16    404     148.40 0.186      18.29    0.100     38.70        0.150 0.14 0.87
           16    405     193.57 0.427       9.15    0.100     38.70        0.090 0.14 0.87
           16    406     247.03 0.058      60.98    0.100     38.70        0.414 0.14 0.87
           16    407    2063.61 0.203      15.24    0.150     84.93        0.324 0.14 0.87
           16    408    3013.92 0.438       9.15    0.150     84.93        0.332 0.14 0.87
           16    409     871.32 0.695       9.15    0.150     84.93        0.158 0.14 0.87
           16    410     986.23 0.399       9.15    0.150     52.67        0.181 0.14 0.87
           16    411    2440.25 0.182      18.29    0.150     52.67        0.375 0.14 0.87
           16    412    1351.26 0.181      18.29    0.150     52.67        0.292 0.14 0.87
           16    413    1187.08 0.427       9.15    0.150     52.67        0.196 0.14 0.87
           16    414      49.21 0.157      24.39    0.010     98.00        0.048 0.14 0.87
           16    415      19.69 0.465       9.15    0.010     98.00        0.020 0.14 0.87
           16    416      42.85 0.117      60.98    0.010     98.00        0.085 0.14 0.87
           16    417     216.78 0.077      60.98    0.010     98.00        0.114 0.14 0.87
           16    418     112.59 0.218      15.24    0.140     97.82        0.152 0.14 0.87
           16    419     289.88 0.694       9.15    0.140     97.82        0.104 0.14 0.87
           16    420     462.13 0.473       9.15    0.140     97.82        0.128 0.14 0.87
           16    421     173.09 0.143      24.39    0.140     72.03        0.228 0.14 0.87
           16    422     398.27 0.077      60.98    0.140     72.03        0.476 0.14 0.87
           17    423      61.96 0.474       9.15    0.100     78.48        0.081 0.14 0.87
           17    424      23.76 0.675       9.15    0.100     78.48        0.066 0.14 0.87
           17    425      23.76 0.232      15.24    0.100     78.48        0.117 0.14 0.87
           17    426      89.14 0.079      60.98    0.100     38.70        0.373 0.14 0.87
           17    427      19.50 0.386       9.15    0.100     38.70        0.076 0.14 0.87
           17    428     134.10 0.162      18.29    0.100     38.70        0.167 0.14 0.87
           17    429      33.95 0.860       9.15    0.100     38.70        0.064 0.14 0.87
           17    430      93.36 0.408       9.15    0.100     38.70        0.090 0.14 0.87
           17    431     175.68 0.454       9.15    0.100     64.50        0.104 0.14 0.87
           17    432     141.73 0.726       9.15    0.100     64.50        0.089 0.14 0.87
           17    433      47.53 0.214      15.24    0.100     64.50        0.125 0.14 0.87
           17    434      77.45 0.904       9.15    0.150     52.67        0.087 0.14 0.87
           17    435      82.61 0.460       9.15    0.150     52.67        0.104 0.14 0.87
           17    436      23.23 0.239      15.24    0.150     52.67        0.147 0.14 0.87
           17    437     319.26 0.432       9.15    0.150     84.93        0.149 0.14 0.87
           17    438      89.50 0.706       9.15    0.150     84.93        0.095 0.14 0.87
           17    439     141.99 0.218      15.24    0.150     84.93        0.175 0.14 0.87
           17    440     251.68 0.408       9.15    0.150     52.67        0.138 0.14 0.87
           17    441     446.21 0.186      18.29    0.150     52.67        0.252 0.14 0.87
           17    442     522.46 0.184      18.29    0.150     52.67        0.265 0.14 0.87
           17    443     313.11 0.420       9.15    0.150     52.67        0.148 0.14 0.87
           17    444      62.82 0.704       9.15    0.150     74.18        0.090 0.14 0.87
           17    445     215.99 0.439       9.15    0.150     74.18        0.130 0.14 0.87
           17    446     113.59 0.217      15.24    0.150     74.18        0.170 0.14 0.87
           17    447       1.80 0.709       9.15    0.010     98.00        0.015 0.14 0.87
           17    448       3.59 0.238      15.24    0.010     98.00        0.029 0.14 0.87
           17    449       9.88 0.408       9.15    0.010     98.00        0.020 0.14 0.87
           17    450      29.63 0.091      60.98    0.010     98.00        0.093 0.14 0.87
           17    451      47.45 0.087      60.98    0.010     98.00        0.098 0.14 0.87
           17    452       9.12 0.397       9.15    0.010     98.00        0.020 0.14 0.87
           17    453       8.08 0.207      15.24    0.010     98.00        0.031 0.14 0.87
           17    454      22.45 0.455       9.15    0.010     98.00        0.023 0.14 0.87
           17    455       5.39 0.711       9.15    0.010     98.00        0.016 0.14 0.87
           17    456     148.28 0.460       9.15    0.140     82.78        0.113 0.14 0.87
           17    457      61.16 0.205      15.24    0.140     82.78        0.156 0.14 0.87
           17    458     200.23 0.847       9.15    0.140     82.78        0.109 0.14 0.87
           17    459       5.03 0.205      15.24    0.140     97.82        0.143 0.14 0.87
           17    460       9.22 0.692       9.15    0.140     97.82        0.075 0.14 0.87
           17    461      20.94 0.459       9.15    0.140     97.82        0.087 0.14 0.87
           17    462      54.45 0.443       9.15    0.140     82.78        0.096 0.14 0.87
           17    463      24.30 0.182      18.29    0.140     82.78        0.169 0.14 0.87
           17    464      14.24 0.697       9.15    0.140     82.78        0.076 0.14 0.87
           17    465      95.58 0.438       9.15    0.050     84.93        0.066 0.14 0.87
           17    466      46.45 0.234      15.24    0.050     84.93        0.085 0.14 0.87
           17    467      25.01 0.665       9.15    0.050     84.93        0.046 0.14 0.87
           17    468      33.05 0.712       9.15    0.050     74.18        0.047 0.14 0.87
           17    469      11.61 0.221      15.24    0.050     74.18        0.078 0.14 0.87
           17    470      71.46 0.473       9.15    0.050     74.18        0.060 0.14 0.87
           17    471     134.01 0.139      24.39    0.140     72.03        0.239 0.14 0.87
           17    472     145.81 0.121      24.39    0.140     72.03        0.250 0.14 0.87
           18    473     224.35 0.430       9.15    0.100     78.48        0.088 0.14 0.87
           18    474     131.78 0.212      15.24    0.100     78.48        0.127 0.14 0.87
           18    475     109.26 0.706       9.15    0.100     78.48        0.069 0.14 0.87
           18    476     110.93 0.702       9.15    0.100     64.50        0.070 0.14 0.87
           18    477     140.95 0.465       9.15    0.100     64.50        0.080 0.14 0.87
           18    478      90.07 0.179      18.29    0.100     64.50        0.143 0.14 0.87
           18    479     465.60 0.727       9.15    0.150     52.67        0.113 0.14 0.87
           18    480    1140.49 0.441       9.15    0.150     52.67        0.171 0.14 0.87
           18    481     585.20 0.221      15.24    0.150     52.67        0.191 0.14 0.87
           18    482    1577.05 0.212      15.24    0.150     84.93        0.258 0.14 0.87
           18    483    1888.01 0.727       9.15    0.150     84.93        0.206 0.14 0.87
           18    484    3448.82 0.445       9.15    0.150     84.93        0.309 0.14 0.87
           18    485     158.90 0.711       9.15    0.150     74.18        0.090 0.14 0.87
           18    486     453.63 0.145      24.39    0.150     74.18        0.254 0.14 0.87
           18    487     333.18 0.448       9.15    0.150     74.18        0.114 0.14 0.87
           18    488      72.96 0.432       9.15    0.010     98.00        0.025 0.14 0.87
           18    489      84.67 0.161      18.29    0.010     98.00        0.043 0.14 0.87
           18    490     239.30 0.171      18.29    0.010     98.00        0.056 0.14 0.87
           18    491     116.00 0.429       9.15    0.010     98.00        0.029 0.14 0.87
           18    492      52.54 0.034      91.46    0.010     98.00        0.151 0.14 0.87
           18    493      82.36 0.086      60.98    0.010     98.00        0.095 0.14 0.87
           18    494      11.89 0.413       9.15    0.010     98.00        0.019 0.14 0.87
           18    495    2102.59 0.718       9.15    0.140     82.78        0.216 0.14 0.87
           18    496    3301.08 0.456       9.15    0.140     82.78        0.296 0.14 0.87
           18    497    1278.57 0.214      15.24    0.140     82.78        0.233 0.14 0.87
           18    498     917.43 0.732       9.15    0.140     97.82        0.141 0.14 0.87
           18    499     984.99 0.470       9.15    0.140     97.82        0.155 0.14 0.87
           18    500     242.70 0.219      15.24    0.140     97.82        0.160 0.14 0.87
           18    501      60.05 0.715       9.15    0.050     84.93        0.045 0.14 0.87
           18    502     147.62 0.200      18.29    0.050     84.93        0.100 0.14 0.87
           18    503     159.30 0.421       9.15    0.050     84.93        0.060 0.14 0.87
           18    504     228.59 0.061      60.98    0.140     72.03        0.487 0.14 0.87
           18    505     103.35 0.095      60.98    0.140     82.78        0.418 0.14 0.87
           19    506     577.20 0.426       9.15    0.100     78.48        0.093 0.14 0.87
           19    507     194.68 0.711       9.15    0.100     78.48        0.068 0.14 0.87
           19    508     662.58 0.189      18.29    0.100     78.48        0.160 0.14 0.87
           19    509     191.75 0.442       9.15    0.100     38.70        0.077 0.14 0.87
           19    510     159.18 0.187      18.29    0.100     38.70        0.140 0.14 0.87
           19    511     251.03 0.211      15.24    0.100     38.70        0.126 0.14 0.87
           19    512      91.36 0.354       9.15    0.100     38.70        0.077 0.14 0.87
           19    513     390.15 0.217      15.24    0.100     64.50        0.131 0.14 0.87
           19    514     228.89 0.381       9.15    0.100     64.50        0.081 0.14 0.87
           19    515     130.64 0.719       9.15    0.100     64.50        0.065 0.14 0.87
           19    516     173.33 0.184      18.29    0.100     64.50        0.141 0.14 0.87
           19    517     206.63 0.448       9.15    0.100     64.50        0.077 0.14 0.87
           19    518      53.79 0.347       9.15    0.100     78.48        0.076 0.14 0.87
           19    519     142.59 0.245      15.24    0.100     78.48        0.116 0.14 0.87
           19    520     253.15 0.113      60.98    0.100     38.70        0.328 0.14 0.87
           19    521      84.97 0.406       9.15    0.100     38.70        0.074 0.14 0.87
           19    522     203.03 0.691       9.15    0.150     52.67        0.085 0.14 0.87
           19    523     883.27 0.433       9.15    0.150     52.67        0.122 0.14 0.87
           19    524     427.88 0.221      15.24    0.150     52.67        0.163 0.14 0.87
           19    525    6284.43 0.203      15.24    0.150     84.93        0.348 0.14 0.87
           19    526    8555.71 0.433       9.15    0.150     84.93        0.349 0.14 0.87
           19    527    2644.13 0.710       9.15    0.150     84.93        0.168 0.14 0.87
           19    528    1167.48 0.169      18.29    0.150     52.67        0.220 0.14 0.87
           19    529     275.55 0.385       9.15    0.150     52.67        0.102 0.14 0.87
           19    530     247.62 0.715       9.15    0.150     84.93        0.086 0.14 0.87
           19    531     660.32 0.220      15.24    0.150     84.93        0.172 0.14 0.87
           19    532     495.24 0.420       9.15    0.150     84.93        0.109 0.14 0.87
           19    533    1122.93 0.167      18.29    0.150     52.67        0.219 0.14 0.87
           19    534     261.28 0.395       9.15    0.150     52.67        0.101 0.14 0.87
           19    535      81.64 0.431       9.15    0.010     98.00        0.022 0.14 0.87
           19    536      39.82 0.228      15.24    0.010     98.00        0.030 0.14 0.87
           19    537     437.84 0.167      18.29    0.010     98.00        0.054 0.14 0.87
           19    538     355.74 0.437       9.15    0.010     98.00        0.033 0.14 0.87
           19    539      63.27 0.168      18.29    0.010     98.00        0.038 0.14 0.87
           19    540      32.62 0.405       9.15    0.010     98.00        0.019 0.14 0.87
           19    541      92.24 0.069      60.98    0.010     98.00        0.097 0.14 0.87
           19    542     128.08 0.071      60.98    0.100     46.65        0.370 0.14 0.87
           19    543      61.90 0.095      60.98    0.100     69.82        0.337 0.14 0.87
           19    544     379.10 0.090      60.98    0.100     46.65        0.356 0.14 0.87
           19    545     724.47 0.211      15.24    0.140     82.78        0.170 0.14 0.87
           19    546    2127.16 0.455       9.15    0.140     82.78        0.159 0.14 0.87
           19    547    1166.34 0.721       9.15    0.140     82.78        0.117 0.14 0.87
           19    548    1057.59 0.206      15.24    0.140     97.82        0.183 0.14 0.87
           19    549    2876.47 0.458       9.15    0.140     97.82        0.183 0.14 0.87
           19    550    2468.85 0.758       9.15    0.140     97.82        0.158 0.14 0.87
           19    551     641.73 0.212      15.24    0.050     84.93        0.102 0.14 0.87
           19    552     308.06 0.689       9.15    0.050     84.93        0.053 0.14 0.87
           19    553    1108.68 0.433       9.15    0.050     84.93        0.089 0.14 0.87
           19    554      41.49 0.203      15.24    0.050     74.18        0.079 0.14 0.87
           19    555      34.43 0.692       9.15    0.050     74.18        0.041 0.14 0.87
           19    556      64.44 0.462       9.15    0.050     74.18        0.047 0.14 0.87
           19    557     334.40 0.142      24.39    0.140     89.23        0.224 0.14 0.87
           19    558     209.10 0.111      60.98    0.140     72.03        0.399 0.14 0.87
           19    559     241.08 0.130      24.39    0.140     72.03        0.226 0.14 0.87
           19    560      31.52 0.431       9.15    0.140     72.03        0.085 0.14 0.87
           19    561     324.24 0.135      24.39    0.140     82.78        0.227 0.14 0.87
           19    562    1550.08 0.133      24.39    0.140     72.03        0.272 0.14 0.87
           20    563     367.69 0.419       9.15    0.100     78.48        0.098 0.14 0.87
           20    564     268.48 0.205      15.24    0.100     78.48        0.138 0.14 0.87
           20    565     127.64 0.211      15.24    0.100     38.70        0.126 0.14 0.87
           20    566     255.29 0.436       9.15    0.100     38.70        0.089 0.14 0.87
           20    567      55.10 0.443       9.15    0.100     38.70        0.073 0.14 0.87
           20    568      62.32 0.218      15.24    0.100     38.70        0.119 0.14 0.87
           20    569   10281.66 0.411       9.15    0.150     84.93        0.632 0.14 0.87
           20    570   10956.40 0.196      18.29    0.150     84.93        0.741 0.14 0.87
           20    571     999.95 0.172      18.29    0.150     52.67        0.244 0.14 0.87
           20    572     639.50 0.429       9.15    0.150     52.67        0.135 0.14 0.87
           20    573    2269.71 0.403       9.15    0.150     52.67        0.233 0.14 0.87
           20    574    2860.99 0.198      18.29    0.150     52.67        0.343 0.14 0.87
           20    575       6.83 0.696       9.15    0.010     98.00        0.016 0.14 0.87
           20    576      14.51 0.415       9.15    0.010     98.00        0.019 0.14 0.87
           20    577      16.22 0.186      18.29    0.010     98.00        0.035 0.14 0.87
           20    578     162.77 0.413       9.15    0.010     98.00        0.032 0.14 0.87
           20    579     266.59 0.170      18.29    0.010     98.00        0.056 0.14 0.87
           20    580      19.04 0.391       9.15    0.010     98.00        0.020 0.14 0.87
           20    581      42.41 0.119      60.98    0.010     98.00        0.083 0.14 0.87
           20    582      48.45 0.410       9.15    0.010     98.00        0.022 0.14 0.87
           20    583      77.87 0.176      18.29    0.010     98.00        0.041 0.14 0.87
           20    584     694.94 0.781       9.15    0.140     82.78        0.121 0.14 0.87
           20    585     872.30 0.447       9.15    0.140     82.78        0.145 0.14 0.87
           20    586     389.68 0.207      15.24    0.140     82.78        0.172 0.14 0.87
           20    587    1651.65 0.453       9.15    0.140     97.82        0.192 0.14 0.87
           20    588     717.96 0.716       9.15    0.140     97.82        0.124 0.14 0.87
           20    589     644.63 0.206      15.24    0.140     97.82        0.189 0.14 0.87
           20    590      50.31 0.200      18.29    0.140     82.78        0.164 0.14 0.87
           20    591     117.67 0.463       9.15    0.140     82.78        0.092 0.14 0.87
           20    592     115.11 0.870       9.15    0.140     82.78        0.078 0.14 0.87
           21    593      31.46 0.449       9.15    0.100     38.70        0.070 0.14 0.87
           21    594      16.65 0.212      15.24    0.100     38.70        0.116 0.14 0.87
           21    595      32.08 0.725       9.15    0.100     78.48        0.061 0.14 0.87
           21    596     122.41 0.060      60.98    0.100     78.48        0.392 0.14 0.87
           21    597      41.37 0.502       9.15    0.100     78.48        0.069 0.14 0.87
           21    598     106.36 0.448       9.15    0.100     38.70        0.076 0.14 0.87
           21    599      64.16 0.167      18.29    0.100     38.70        0.142 0.14 0.87
           21    600      26.17 0.656       9.15    0.100     38.70        0.062 0.14 0.87
           21    601      76.52 0.377       9.15    0.100     38.70        0.077 0.14 0.87
           21    602     161.54 0.195      18.29    0.100     38.70        0.143 0.14 0.87
           21    603   26344.19 0.138      24.39    0.150     84.93        1.303 0.14 0.87
           21    604   12361.66 0.423       9.15    0.150     84.93        0.646 0.14 0.87
           21    605    4875.77 0.189      18.29    0.150     52.67        0.416 0.14 0.87
           21    606    3343.24 0.401       9.15    0.150     52.67        0.266 0.14 0.87
           21    607     645.24 0.410       9.15    0.150     52.67        0.130 0.14 0.87
           21    608    4363.10 0.151      24.39    0.150     52.67        0.438 0.14 0.87
           21    609     270.35 0.414       9.15    0.010     98.00        0.037 0.14 0.87
           21    610    1544.73 0.078      60.98    0.010     98.00        0.179 0.14 0.87
           21    611     125.63 0.085      60.98    0.010     98.00        0.097 0.14 0.87
           21    612      35.37 0.453       9.15    0.010     98.00        0.020 0.14 0.87
           21    613     177.76 0.154      24.39    0.010     98.00        0.055 0.14 0.87
           21    614     238.58 0.444       9.15    0.140     82.78        0.100 0.14 0.87
           21    615      63.57 0.224      15.24    0.140     82.78        0.143 0.14 0.87
           21    616      62.69 0.662       9.15    0.140     82.78        0.078 0.14 0.87
           21    617    2328.37 0.462       9.15    0.140     97.82        0.211 0.14 0.87
           21    618     579.92 0.212      15.24    0.140     97.82        0.178 0.14 0.87
           21    619    1057.08 0.687       9.15    0.140     97.82        0.137 0.14 0.87
           21    620     501.05 0.162      18.29    0.050     84.93        0.125 0.14 0.87
           21    621     192.64 0.418       9.15    0.050     84.93        0.060 0.14 0.87
           21    622      81.01 0.174      18.29    0.050     52.67        0.096 0.14 0.87
           22    623    1578.83 0.191      18.29    0.150     52.67        0.304 0.14 0.87
           22    624     874.35 0.387       9.15    0.150     52.67        0.171 0.14 0.87
           22    625   30855.49 0.121      24.39    0.150     84.93        2.068 0.14 0.87
           22    626    6575.39 0.391       9.15    0.150     84.93        0.565 0.14 0.87
           22    627    6154.05 0.170      18.29    0.150     52.67        0.622 0.14 0.87
           22    628    2373.17 0.394       9.15    0.150     52.67        0.284 0.14 0.87
           22    629    2387.82 0.071      60.98    0.010     98.00        0.287 0.14 0.87
           22    630      96.73 0.382       9.15    0.010     98.00        0.030 0.14 0.87
           22    631     474.87 0.140      24.39    0.010     98.00        0.091 0.14 0.87
           22    632    1141.38 0.431       9.15    0.140     82.78        0.186 0.14 0.87
           22    633     342.92 0.703       9.15    0.140     82.78        0.108 0.14 0.87
           22    634     972.85 0.197      18.29    0.140     82.78        0.249 0.14 0.87
           22    635     355.43 0.664       9.15    0.140     97.82        0.110 0.14 0.87
           22    636    1948.20 0.448       9.15    0.140     97.82        0.246 0.14 0.87
           22    637     973.68 0.174      18.29    0.140     97.82        0.255 0.14 0.87
           22    638     565.20 0.417       9.15    0.140     82.78        0.139 0.14 0.87
           22    639     612.07 0.197      18.29    0.140     82.78        0.219 0.14 0.87
           22    640    6569.13 0.118      60.98    0.050     84.93        0.681 0.14 0.32
           22    641     190.44 0.381       9.15    0.050     52.67        0.068 0.14 0.32
           22    642     625.24 0.185      18.29    0.050     52.67        0.148 0.14 0.32
           23    643    1991.46 0.191      18.29    0.150     52.67        0.360 0.14 0.32
           23    644    1937.09 0.428       9.15    0.150     52.67        0.275 0.14 0.32
           23    645    1127.03 0.382       9.15    0.150     84.93        0.207 0.14 0.32
           23    646    6600.93 0.145      24.39    0.150     84.93        0.766 0.14 0.32
           23    647    3413.99 0.418       9.15    0.150     52.67        0.396 0.14 0.32
           23    648    8360.00 0.160      18.29    0.150     52.67        0.853 0.14 0.32
           23    649      68.47 0.161      18.29    0.010     98.00        0.045 0.14 0.32
           23    650      48.18 0.417       9.15    0.010     98.00        0.025 0.14 0.32
           23    651     484.09 0.125      24.39    0.010     98.00        0.100 0.14 0.32
           23    652      56.87 0.415       9.15    0.010     98.00        0.026 0.14 0.32
           23    653     421.39 0.117      60.98    0.010     98.00        0.128 0.14 0.32
           23    654    1206.48 0.207      15.24    0.140     82.78        0.265 0.14 0.32
           23    655    1022.34 0.703       9.15    0.140     82.78        0.179 0.14 0.32
           23    656    2506.28 0.452       9.15    0.140     82.78        0.317 0.14 0.32
           23    657     651.37 0.443       9.15    0.140     97.82        0.155 0.14 0.32
           23    658     504.28 0.188      18.29    0.140     97.82        0.219 0.14 0.32
           23    659     432.43 0.189      18.29    0.140     82.78        0.212 0.14 0.32
           23    660     810.71 0.450       9.15    0.140     82.78        0.170 0.14 0.32
           23    661     314.95 0.704       9.15    0.140     82.78        0.110 0.14 0.32
           23    662     143.19 0.408       9.15    0.050     52.67        0.065 0.14 0.32
           23    663     413.39 0.168      18.29    0.050     52.67        0.139 0.14 0.32
           23    664     136.83 0.403       9.15    0.050     84.93        0.064 0.14 0.32
           23    665     756.36 0.124      24.39    0.050     84.93        0.200 0.14 0.32
           23    666      32.77 0.411       9.15    0.050     52.67        0.051 0.14 0.32
           23    667      65.54 0.182      18.29    0.050     52.67        0.098 0.14 0.32

         HRU CN Input Summary Table:
          Sub   HRU   Area(ha)  LULC      Soil    CN1    CN2    CN3  Wilting Point (mm H2O)  Field Capacity (mm H2O)  Saturation (mm H2O)
            1      1      33.07  FRST  soil-122   18.8   38.7   58.5                    68.3                    160.2                553.8
            1      2      10.17  FRST  soil-122   18.8   38.7   58.5                    68.3                    160.2                553.8
            1      3      31.37  FRST  soil-122   18.8   38.7   58.5                    68.3                    160.2                553.8
            1      4      84.78  FRST  soil-161   18.8   38.7   58.5                    40.9                     59.5                277.0
            1      5     113.61  FRST  soil-161   18.8   38.7   58.5                    40.9                     59.5                277.0
            1      6     225.52  FRST  soil-161   18.8   38.7   58.5                    40.9                     59.5                277.0
            1      7      24.59  FRST  soil-163   18.8   38.7   58.5                    11.7                     71.7                193.2
            1      8      76.30  FRST  soil-163   18.8   38.7   58.5                    11.7                     71.7                193.2
            1      9     100.04  FRST  soil-163   18.8   38.7   58.5                    11.7                     71.7                193.2
            1     10    1068.80  PAST  soil-161   32.9   52.7   72.4                    40.9                     59.5                277.0
            1     11     498.10  PAST  soil-161   32.9   52.7   72.4                    40.9                     59.5                277.0
            1     12     655.97  PAST  soil-161   32.9   52.7   72.4                    40.9                     59.5                277.0
            1     13    2585.05  PAST  soil-163   32.9   52.7   72.4                    11.7                     71.7                193.2
            1     14    2557.19  PAST  soil-163   32.9   52.7   72.4                    11.7                     71.7                193.2
            1     15    1474.88  PAST  soil-163   32.9   52.7   72.4                    11.7                     71.7                193.2
            1     16     308.99  PAST  soil-61    32.9   52.7   72.4                    23.2                    178.0                393.4
            1     17     894.04  PAST  soil-61    32.9   52.7   72.4                    23.2                    178.0                393.4
            1     18     411.99  PAST  soil-61    32.9   52.7   72.4                    23.2                    178.0                393.4
            1     19     207.00  WATR  soil-161   94.9   98.0   99.3                    40.9                     59.5                277.0
            1     20     141.06  WATR  soil-161   94.9   98.0   99.3                    40.9                     59.5                277.0
            1     21      66.77  WATR  soil-161   94.9   98.0   99.3                    40.9                     59.5                277.0
            1     22     313.83  WATR  soil-163   94.9   98.0   99.3                    11.7                     71.7                193.2
            1     23     254.57  WATR  soil-163   94.9   98.0   99.3                    11.7                     71.7                193.2
            1     24     121.03  WATR  soil-163   94.9   98.0   99.3                    11.7                     71.7                193.2
            1     25      92.29  WATR  soil-61    94.9   98.0   99.3                    23.2                    178.0                393.4
            1     26      23.73  WATR  soil-61    94.9   98.0   99.3                    23.2                    178.0                393.4
            2     27     500.49  PAST  soil-101   32.9   52.7   72.4                     9.8                     16.2                 30.4
            2     28    1396.11  PAST  soil-101   32.9   52.7   72.4                     9.8                     16.2                 30.4
            2     29   25507.55  PAST  soil-111   69.8   84.9   94.0                    51.6                    103.4                221.4
            2     30    2341.43  PAST  soil-132   78.5   90.3   96.4                    52.5                     61.6                141.6
            2     31     684.87  WATR  soil-111   94.9   98.0   99.3                    51.6                    103.4                221.4
            2     32     543.59  WATR  soil-122   94.9   98.0   99.3                    68.3                    160.2                553.8
            2     33    1645.17  BARR  soil-101   66.7   82.8   92.9                     9.8                     16.2                 30.4
            2     34    2175.23  BARR  soil-101   66.7   82.8   92.9                     9.8                     16.2                 30.4
            2     35     476.71  BARR  soil-101   66.7   82.8   92.9                     9.8                     16.2                 30.4
            2     36     285.82  BARR  soil-111   94.5   97.8   99.3                    51.6                    103.4                221.4
            2     37     287.57  BARR  soil-111   94.5   97.8   99.3                    51.6                    103.4                221.4
            2     38     315.03  BARR  soil-132   94.9   98.0   99.3                    52.5                     61.6                141.6
            2     39      59.86  WETL  soil-101   32.9   52.7   72.4                     9.8                     16.2                 30.4
            2     40     300.17  WETL  soil-101   32.9   52.7   72.4                     9.8                     16.2                 30.4
            2     41     905.93  WETL  soil-111   69.8   84.9   94.0                    51.6                    103.4                221.4
            2     42     534.22  WETL  soil-122   32.9   52.7   72.4                    68.3                    160.2                553.8
            2     43     522.56  WETL  soil-132   78.5   90.3   96.4                    52.5                     61.6                141.6
            3     44    7503.94  PAST  soil-101   32.9   52.7   72.4                     9.8                     16.2                 30.4
            3     45    2795.58  PAST  soil-101   32.9   52.7   72.4                     9.8                     16.2                 30.4
            3     46   22924.79  PAST  soil-111   69.8   84.9   94.0                    51.6                    103.4                221.4
            3     47   58915.05  PAST  soil-132   78.5   90.3   96.4                    52.5                     61.6                141.6
            3     48     399.47  WATR  soil-101   94.9   98.0   99.3                     9.8                     16.2                 30.4
            3     49     247.85  WATR  soil-101   94.9   98.0   99.3                     9.8                     16.2                 30.4
            3     50     145.66  WATR  soil-101   94.9   98.0   99.3                     9.8                     16.2                 30.4
            3     51    3188.11  WATR  soil-111   94.9   98.0   99.3                    51.6                    103.4                221.4
            3     52     914.79  WATR  soil-122   94.9   98.0   99.3                    68.3                    160.2                553.8
            3     53    2887.44  WATR  soil-132   94.9   98.0   99.3                    52.5                     61.6                141.6
            3     54    7264.15  BARR  soil-101   66.7   82.8   92.9                     9.8                     16.2                 30.4
            3     55    2339.47  BARR  soil-101   66.7   82.8   92.9                     9.8                     16.2                 30.4
            3     56    8415.65  BARR  soil-101   66.7   82.8   92.9                     9.8                     16.2                 30.4
            3     57    2798.78  BARR  soil-111   94.5   97.8   99.3                    51.6                    103.4                221.4
            3     58    1800.26  BARR  soil-111   94.5   97.8   99.3                    51.6                    103.4                221.4
            3     59    1716.14  BARR  soil-132   94.9   98.0   99.3                    52.5                     61.6                141.6
            3     60     591.19  BARR  soil-132   94.9   98.0   99.3                    52.5                     61.6                141.6
            3     61    5160.16  WETL  soil-111   69.8   84.9   94.0                    51.6                    103.4                221.4
            3     62   17126.03  WETL  soil-132   78.5   90.3   96.4                    52.5                     61.6                141.6
            4     63     586.86  FRST  soil-161   18.8   38.7   58.5                    40.9                     59.5                277.0
            4     64     282.57  FRST  soil-161   18.8   38.7   58.5                    40.9                     59.5                277.0
            4     65     420.50  FRST  soil-161   18.8   38.7   58.5                    40.9                     59.5                277.0
            4     66     127.91  FRST  soil-171   45.2   64.5   81.9                   130.6                    107.1                470.3
            4     67      76.91  FRST  soil-171   45.2   64.5   81.9                   130.6                    107.1                470.3
            4     68     173.05  FRST  soil-171   45.2   64.5   81.9                   130.6                    107.1                470.3
            4     69    4047.80  PAST  soil-161   32.9   52.7   72.4                    40.9                     59.5                277.0
            4     70    3465.64  PAST  soil-161   32.9   52.7   72.4                    40.9                     59.5                277.0
            4     71    4008.48  PAST  soil-161   32.9   52.7   72.4                    40.9                     59.5                277.0
            4     72     121.39  PAST  soil-163   32.9   52.7   72.4                    11.7                     71.7                193.2
            4     73     453.08  PAST  soil-163   32.9   52.7   72.4                    11.7                     71.7                193.2
            4     74     291.51  PAST  soil-163   32.9   52.7   72.4                    11.7                     71.7                193.2
            4     75     677.06  PAST  soil-171   55.9   74.2   88.3                   130.6                    107.1                470.3
            4     76     657.39  PAST  soil-171   55.9   74.2   88.3                   130.6                    107.1                470.3
            4     77     241.93  PAST  soil-171   55.9   74.2   88.3                   130.6                    107.1                470.3
            4     78      73.46  WATR  soil-161   94.9   98.0   99.3                    40.9                     59.5                277.0
            4     79      30.05  WATR  soil-161   94.9   98.0   99.3                    40.9                     59.5                277.0
            4     80      80.13  WATR  soil-161   94.9   98.0   99.3                    40.9                     59.5                277.0
            4     81      40.90  WATR  soil-163   94.9   98.0   99.3                    11.7                     71.7                193.2
            4     82      29.22  WATR  soil-163   94.9   98.0   99.3                    11.7                     71.7                193.2
            4     83      10.02  WATR  soil-163   94.9   98.0   99.3                    11.7                     71.7                193.2
            5     84     220.77  FRST  soil-111   61.1   78.5   90.7                    51.6                    103.4                221.4
            5     85     144.02  FRST  soil-111   61.1   78.5   90.7                    51.6                    103.4                221.4
            5     86     238.88  FRST  soil-111   61.1   78.5   90.7                    51.6                    103.4                221.4
            5     87     195.76  FRST  soil-122   18.8   38.7   58.5                    68.3                    160.2                553.8
            5     88     150.05  FRST  soil-122   18.8   38.7   58.5                    68.3                    160.2                553.8
            5     89      56.06  FRST  soil-122   18.8   38.7   58.5                    68.3                    160.2                553.8
            5     90     236.29  FRST  soil-161   18.8   38.7   58.5                    40.9                     59.5                277.0
            5     91     265.61  FRST  soil-161   18.8   38.7   58.5                    40.9                     59.5                277.0
            5     92      93.14  FRST  soil-161   18.8   38.7   58.5                    40.9                     59.5                277.0
            5     93    2993.40  PAST  soil-111   69.8   84.9   94.0                    51.6                    103.4                221.4
            5     94    1546.74  PAST  soil-111   69.8   84.9   94.0                    51.6                    103.4                221.4
            5     95    3072.93  PAST  soil-111   69.8   84.9   94.0                    51.6                    103.4                221.4
            5     96    2182.95  PAST  soil-122   32.9   52.7   72.4                    68.3                    160.2                553.8
            5     97    1635.20  PAST  soil-122   32.9   52.7   72.4                    68.3                    160.2                553.8
            5     98     671.06  PAST  soil-122   32.9   52.7   72.4                    68.3                    160.2                553.8
            5     99    1021.33  PAST  soil-161   32.9   52.7   72.4                    40.9                     59.5                277.0
            5    100    3149.77  PAST  soil-161   32.9   52.7   72.4                    40.9                     59.5                277.0
            5    101    3354.39  PAST  soil-161   32.9   52.7   72.4                    40.9                     59.5                277.0
            5    102      13.90  WATR  soil-101   94.9   98.0   99.3                     9.8                     16.2                 30.4
            5    103      24.32  WATR  soil-101   94.9   98.0   99.3                     9.8                     16.2                 30.4
            5    104      25.19  WATR  soil-101   94.9   98.0   99.3                     9.8                     16.2                 30.4
            5    105      48.50  WATR  soil-111   94.9   98.0   99.3                    51.6                    103.4                221.4
            5    106     184.30  WATR  soil-111   94.9   98.0   99.3                    51.6                    103.4                221.4
            5    107      12.16  WATR  soil-122   94.9   98.0   99.3                    68.3                    160.2                553.8
            5    108      41.70  WATR  soil-122   94.9   98.0   99.3                    68.3                    160.2                553.8
            5    109      39.96  WATR  soil-122   94.9   98.0   99.3                    68.3                    160.2                553.8
            5    110      38.22  WATR  soil-161   94.9   98.0   99.3                    40.9                     59.5                277.0
            5    111      54.72  WATR  soil-161   94.9   98.0   99.3                    40.9                     59.5                277.0
[...]
           19    523     883.27       175.000         0.850   4250.000   0.065      750.000  0.050    0.000     0.000
           19    524     427.88       175.000         0.850   4250.000   0.065      750.000  0.050    0.000     0.000
           19    525    6284.43       175.000         0.850   4250.000   0.065      750.000  0.050    0.000     0.000
           19    526    8555.71       175.000         0.850   4250.000   0.065      750.000  0.050    0.000     0.000
           19    527    2644.13       175.000         0.850   4250.000   0.065      750.000  0.050    0.000     0.000
           19    528    1167.48       175.000         0.850   4250.000   0.065      750.000  0.050    0.000     0.000
           19    529     275.55       175.000         0.850   4250.000   0.065      750.000  0.050    0.000     0.000
           19    530     247.62       175.000         0.850   4250.000   0.065      750.000  0.050    0.000     0.000
           19    531     660.32       175.000         0.850   4250.000   0.065      750.000  0.050    0.000     0.000
           19    532     495.24       175.000         0.850   4250.000   0.065      750.000  0.050    0.000     0.000
           19    533    1122.93       175.000         0.850   4250.000   0.065      750.000  0.050    0.000     0.000
           19    534     261.28       175.000         0.850   4250.000   0.065      750.000  0.050    0.000     0.000
           19    535      81.64       175.000         0.850   4250.000   0.065      750.000  0.050    0.000     0.000
           19    536      39.82       175.000         0.850   4250.000   0.065      750.000  0.050    0.000     0.000
           19    537     437.84       175.000         0.850   4250.000   0.065      750.000  0.050    0.000     0.000
           19    538     355.74       175.000         0.850   4250.000   0.065      750.000  0.050    0.000     0.000
           19    539      63.27       175.000         0.850   4250.000   0.065      750.000  0.050    0.000     0.000
           19    540      32.62       175.000         0.850   4250.000   0.065      750.000  0.050    0.000     0.000
           19    541      92.24       175.000         0.850   4250.000   0.065      750.000  0.050    0.000     0.000
           19    542     128.08       175.000         0.850   4250.000   0.065      750.000  0.050    0.000     0.000
           19    543      61.90       175.000         0.850   4250.000   0.065      750.000  0.050    0.000     0.000
           19    544     379.10       175.000         0.850   4250.000   0.065      750.000  0.050    0.000     0.000
           19    545     724.47       175.000         0.850   4250.000   0.065      750.000  0.050    0.000     0.000
           19    546    2127.16       175.000         0.850   4250.000   0.065      750.000  0.050    0.000     0.000
           19    547    1166.34       175.000         0.850   4250.000   0.065      750.000  0.050    0.000     0.000
           19    548    1057.59       175.000         0.850   4250.000   0.065      750.000  0.050    0.000     0.000
           19    549    2876.47       175.000         0.850   4250.000   0.065      750.000  0.050    0.000     0.000
           19    550    2468.85       175.000         0.850   4250.000   0.065      750.000  0.050    0.000     0.000
           19    551     641.73       175.000         0.850   4250.000   0.065      750.000  0.050    0.000     0.000
           19    552     308.06       175.000         0.850   4250.000   0.065      750.000  0.050    0.000     0.000
           19    553    1108.68       175.000         0.850   4250.000   0.065      750.000  0.050    0.000     0.000
           19    554      41.49       175.000         0.850   4250.000   0.065      750.000  0.050    0.000     0.000
           19    555      34.43       175.000         0.850   4250.000   0.065      750.000  0.050    0.000     0.000
           19    556      64.44       175.000         0.850   4250.000   0.065      750.000  0.050    0.000     0.000
           19    557     334.40       175.000         0.850   4250.000   0.065      750.000  0.050    0.000     0.000
           19    558     209.10       175.000         0.850   4250.000   0.065      750.000  0.050    0.000     0.000
           19    559     241.08       175.000         0.850   4250.000   0.065      750.000  0.050    0.000     0.000
           19    560      31.52       175.000         0.850   4250.000   0.065      750.000  0.050    0.000     0.000
           19    561     324.24       175.000         0.850   4250.000   0.065      750.000  0.050    0.000     0.000
           19    562    1550.08       175.000         0.850   4250.000   0.065      750.000  0.050    0.000     0.000
           20    563     367.69       175.000         0.850   4250.000   0.065      750.000  0.050    0.000     0.000
           20    564     268.48       175.000         0.850   4250.000   0.065      750.000  0.050    0.000     0.000
           20    565     127.64       175.000         0.850   4250.000   0.065      750.000  0.050    0.000     0.000
           20    566     255.29       175.000         0.850   4250.000   0.065      750.000  0.050    0.000     0.000
           20    567      55.10       175.000         0.850   4250.000   0.065      750.000  0.050    0.000     0.000
           20    568      62.32       175.000         0.850   4250.000   0.065      750.000  0.050    0.000     0.000
           20    569   10281.66       175.000         0.850   4250.000   0.065      750.000  0.050    0.000     0.000
           20    570   10956.40       175.000         0.850   4250.000   0.065      750.000  0.050    0.000     0.000
           20    571     999.95       175.000         0.850   4250.000   0.065      750.000  0.050    0.000     0.000
           20    572     639.50       175.000         0.850   4250.000   0.065      750.000  0.050    0.000     0.000
           20    573    2269.71       175.000         0.850   4250.000   0.065      750.000  0.050    0.000     0.000
           20    574    2860.99       175.000         0.850   4250.000   0.065      750.000  0.050    0.000     0.000
           20    575       6.83       175.000         0.850   4250.000   0.065      750.000  0.050    0.000     0.000
           20    576      14.51       175.000         0.850   4250.000   0.065      750.000  0.050    0.000     0.000
           20    577      16.22       175.000         0.850   4250.000   0.065      750.000  0.050    0.000     0.000
           20    578     162.77       175.000         0.850   4250.000   0.065      750.000  0.050    0.000     0.000
           20    579     266.59       175.000         0.850   4250.000   0.065      750.000  0.050    0.000     0.000
           20    580      19.04       175.000         0.850   4250.000   0.065      750.000  0.050    0.000     0.000
           20    581      42.41       175.000         0.850   4250.000   0.065      750.000  0.050    0.000     0.000
           20    582      48.45       175.000         0.850   4250.000   0.065      750.000  0.050    0.000     0.000
           20    583      77.87       175.000         0.850   4250.000   0.065      750.000  0.050    0.000     0.000
           20    584     694.94       175.000         0.850   4250.000   0.065      750.000  0.050    0.000     0.000
           20    585     872.30       175.000         0.850   4250.000   0.065      750.000  0.050    0.000     0.000
           20    586     389.68       175.000         0.850   4250.000   0.065      750.000  0.050    0.000     0.000
           20    587    1651.65       175.000         0.850   4250.000   0.065      750.000  0.050    0.000     0.000
           20    588     717.96       175.000         0.850   4250.000   0.065      750.000  0.050    0.000     0.000
           20    589     644.63       175.000         0.850   4250.000   0.065      750.000  0.050    0.000     0.000
           20    590      50.31       175.000         0.850   4250.000   0.065      750.000  0.050    0.000     0.000
           20    591     117.67       175.000         0.850   4250.000   0.065      750.000  0.050    0.000     0.000
           20    592     115.11       175.000         0.850   4250.000   0.065      750.000  0.050    0.000     0.000
           21    593      31.46       175.000         0.850   4250.000   0.065      750.000  0.050    0.000     0.000
           21    594      16.65       175.000         0.850   4250.000   0.065      750.000  0.050    0.000     0.000
           21    595      32.08       175.000         0.850   4250.000   0.065      750.000  0.050    0.000     0.000
           21    596     122.41       175.000         0.850   4250.000   0.065      750.000  0.050    0.000     0.000
           21    597      41.37       175.000         0.850   4250.000   0.065      750.000  0.050    0.000     0.000
           21    598     106.36       175.000         0.850   4250.000   0.065      750.000  0.050    0.000     0.000
           21    599      64.16       175.000         0.850   4250.000   0.065      750.000  0.050    0.000     0.000
           21    600      26.17       175.000         0.850   4250.000   0.065      750.000  0.050    0.000     0.000
           21    601      76.52       175.000         0.850   4250.000   0.065      750.000  0.050    0.000     0.000
           21    602     161.54       175.000         0.850   4250.000   0.065      750.000  0.050    0.000     0.000
           21    603   26344.19       175.000         0.850   4250.000   0.065      750.000  0.050    0.000     0.000
           21    604   12361.66       175.000         0.850   4250.000   0.065      750.000  0.050    0.000     0.000
           21    605    4875.77       175.000         0.850   4250.000   0.065      750.000  0.050    0.000     0.000
           21    606    3343.24       175.000         0.850   4250.000   0.065      750.000  0.050    0.000     0.000
           21    607     645.24       175.000         0.850   4250.000   0.065      750.000  0.050    0.000     0.000
           21    608    4363.10       175.000         0.850   4250.000   0.065      750.000  0.050    0.000     0.000
           21    609     270.35       175.000         0.850   4250.000   0.065      750.000  0.050    0.000     0.000
           21    610    1544.73       175.000         0.850   4250.000   0.065      750.000  0.050    0.000     0.000
           21    611     125.63       175.000         0.850   4250.000   0.065      750.000  0.050    0.000     0.000
           21    612      35.37       175.000         0.850   4250.000   0.065      750.000  0.050    0.000     0.000
           21    613     177.76       175.000         0.850   4250.000   0.065      750.000  0.050    0.000     0.000
           21    614     238.58       175.000         0.850   4250.000   0.065      750.000  0.050    0.000     0.000
           21    615      63.57       175.000         0.850   4250.000   0.065      750.000  0.050    0.000     0.000
           21    616      62.69       175.000         0.850   4250.000   0.065      750.000  0.050    0.000     0.000
           21    617    2328.37       175.000         0.850   4250.000   0.065      750.000  0.050    0.000     0.000
           21    618     579.92       175.000         0.850   4250.000   0.065      750.000  0.050    0.000     0.000
           21    619    1057.08       175.000         0.850   4250.000   0.065      750.000  0.050    0.000     0.000
           21    620     501.05       175.000         0.850   4250.000   0.065      750.000  0.050    0.000     0.000
           21    621     192.64       175.000         0.850   4250.000   0.065      750.000  0.050    0.000     0.000
           21    622      81.01       175.000         0.850   4250.000   0.065      750.000  0.050    0.000     0.000
           22    623    1578.83       175.000         0.850   4250.000   0.065      750.000  0.050    0.000     0.000
           22    624     874.35       175.000         0.850   4250.000   0.065      750.000  0.050    0.000     0.000
           22    625   30855.49       175.000         0.850   4250.000   0.065      750.000  0.050    0.000     0.000
           22    626    6575.39       175.000         0.850   4250.000   0.065      750.000  0.050    0.000     0.000
           22    627    6154.05       175.000         0.850   4250.000   0.065      750.000  0.050    0.000     0.000
           22    628    2373.17       175.000         0.850   4250.000   0.065      750.000  0.050    0.000     0.000
           22    629    2387.82       175.000         0.850   4250.000   0.065      750.000  0.050    0.000     0.000
           22    630      96.73       175.000         0.850   4250.000   0.065      750.000  0.050    0.000     0.000
           22    631     474.87       175.000         0.850   4250.000   0.065      750.000  0.050    0.000     0.000
           22    632    1141.38       175.000         0.850   4250.000   0.065      750.000  0.050    0.000     0.000
           22    633     342.92       175.000         0.850   4250.000   0.065      750.000  0.050    0.000     0.000
           22    634     972.85       175.000         0.850   4250.000   0.065      750.000  0.050    0.000     0.000
           22    635     355.43       175.000         0.850   4250.000   0.065      750.000  0.050    0.000     0.000
           22    636    1948.20       175.000         0.850   4250.000   0.065      750.000  0.050    0.000     0.000
           22    637     973.68       175.000         0.850   4250.000   0.065      750.000  0.050    0.000     0.000
           22    638     565.20       175.000         0.850   4250.000   0.065      750.000  0.050    0.000     0.000
           22    639     612.07       175.000         0.850   4250.000   0.065      750.000  0.050    0.000     0.000
           22    640    6569.13       175.000         0.850   4250.000   0.065      750.000  0.050    0.000     0.000
           22    641     190.44       175.000         0.850   4250.000   0.065      750.000  0.050    0.000     0.000
           22    642     625.24       175.000         0.850   4250.000   0.065      750.000  0.050    0.000     0.000
           23    643    1991.46       175.000         0.850   4250.000   0.065      750.000  0.050    0.000     0.000
           23    644    1937.09       175.000         0.850   4250.000   0.065      750.000  0.050    0.000     0.000
           23    645    1127.03       175.000         0.850   4250.000   0.065      750.000  0.050    0.000     0.000
           23    646    6600.93       175.000         0.850   4250.000   0.065      750.000  0.050    0.000     0.000
           23    647    3413.99       175.000         0.850   4250.000   0.065      750.000  0.050    0.000     0.000
           23    648    8360.00       175.000         0.850   4250.000   0.065      750.000  0.050    0.000     0.000
           23    649      68.47       175.000         0.850   4250.000   0.065      750.000  0.050    0.000     0.000
           23    650      48.18       175.000         0.850   4250.000   0.065      750.000  0.050    0.000     0.000
           23    651     484.09       175.000         0.850   4250.000   0.065      750.000  0.050    0.000     0.000
           23    652      56.87       175.000         0.850   4250.000   0.065      750.000  0.050    0.000     0.000
           23    653     421.39       175.000         0.850   4250.000   0.065      750.000  0.050    0.000     0.000
           23    654    1206.48       175.000         0.850   4250.000   0.065      750.000  0.050    0.000     0.000
           23    655    1022.34       175.000         0.850   4250.000   0.065      750.000  0.050    0.000     0.000
           23    656    2506.28       175.000         0.850   4250.000   0.065      750.000  0.050    0.000     0.000
           23    657     651.37       175.000         0.850   4250.000   0.065      750.000  0.050    0.000     0.000
           23    658     504.28       175.000         0.850   4250.000   0.065      750.000  0.050    0.000     0.000
           23    659     432.43       175.000         0.850   4250.000   0.065      750.000  0.050    0.000     0.000
           23    660     810.71       175.000         0.850   4250.000   0.065      750.000  0.050    0.000     0.000
           23    661     314.95       175.000         0.850   4250.000   0.065      750.000  0.050    0.000     0.000
           23    662     143.19       175.000         0.850   4250.000   0.065      750.000  0.050    0.000     0.000
           23    663     413.39       175.000         0.850   4250.000   0.065      750.000  0.050    0.000     0.000
           23    664     136.83       175.000         0.850   4250.000   0.065      750.000  0.050    0.000     0.000
           23    665     756.36       175.000         0.850   4250.000   0.065      750.000  0.050    0.000     0.000
           23    666      32.77       175.000         0.850   4250.000   0.065      750.000  0.050    0.000     0.000
           23    667      65.54       175.000         0.850   4250.000   0.065      750.000  0.050    0.000     0.000

         Tributary/Main Channel Characteristics
              |--------------Tributary--------------------|---------------------Main---------------------------|
          Sub  Length(km) Slope Width(m) Cond(mm/hr)     N Length(km) Slope Width(m) Depth(m) Cond(mm/hr)     N
            1       23.06 0.083    23.00      0.0000 0.014      14.31 0.013   321.83     5.15     38.2500 0.127
            2       48.88 0.019    45.42      0.0000 0.014      10.45 0.005    45.42     1.40     38.2500 0.127
            3       93.31 0.011   103.21      0.0000 0.014      65.41 0.006   103.21     2.41     38.2500 0.127
            4       22.49 0.072    26.56      0.0000 0.014      13.93 0.024   313.34     5.06     38.2500 0.127
            5       50.37 0.050    36.63      0.0000 0.014      11.58 0.033    36.63     1.21     38.2500 0.127
            6       14.81 0.106    14.83      0.0000 0.014       8.94 0.013    67.80     1.82     38.2500 0.127
            7       41.42 0.065    40.24      0.0000 0.014      15.81 0.028    40.24     1.29     38.2500 0.127
            8       40.55 0.049    47.99      0.0000 0.014      19.82 0.032    47.99     1.45     38.2500 0.127
            9       71.03 0.016    66.77      0.0000 0.014      51.74 0.005   143.82     3.01     38.2500 0.127
           10       77.63 0.018    83.29      0.0000 0.014      55.62 0.011    83.29     2.09     38.2500 0.127
           11       50.86 0.029    47.74      0.0000 0.014      34.90 0.006   187.91     3.60     38.2500 0.127
           12       27.84 0.059    28.03      0.0000 0.014      16.96 0.010   201.64     3.77     38.2500 0.127
           13       40.37 0.043    42.14      0.0000 0.014      12.44 0.023    42.14     1.33     38.2500 0.127
           14       18.10 0.102    17.65      0.0000 0.014       6.95 0.009   203.72     3.80     38.2500 0.127
           15       71.32 0.036    87.04      0.0000 0.014      61.16 0.007   295.25     4.86     38.2500 0.127
           16       26.07 0.073    25.06      0.0000 0.014      16.37 0.009   213.12     3.91     38.2500 0.127
           17       18.56 0.120    12.85      0.0000 0.014       6.84 0.010   140.08     2.96     38.2500 0.127
           18       29.75 0.056    32.80      0.0000 0.014       5.92 0.027    32.80     1.12     38.2500 0.127
           19       33.26 0.065    49.57      0.0000 0.014      16.12 0.012   138.50     2.94     38.2500 0.127
           20       36.18 0.034    42.87      0.0000 0.014      15.30 0.020    42.87     1.34     38.2500 0.127
           21       51.29 0.026    60.87      0.0000 0.014      38.28 0.007   109.69     2.51     38.2500 0.127
           22       63.77 0.013    64.11      0.0000 0.014      36.68 0.007    64.11     1.76     38.2500 0.127
           23       49.79 0.025    43.82      0.0000 0.014      23.17 0.015    43.82     1.36     38.2500 0.127
