1
    SWAT Dec 11 2014    VER 2012/Rev 635                                                                 0/ 0/   0      0: 0: 0

    General Input/Output section (file.cio):                                        
    2020/2/22 0:00:00 ARCGIS-SWAT interface AV                                      
                                                                                    


       RCH      GIS   MON     AREAkm2  FLOW_INcms FLOW_OUTcms     EVAPcms    TLOSScms  SED_INtons SED_OUTtonsSEDCONCmg/kg
REACH    1        0     1  0.9887E+04  0.2195E+01  0.2206E+01  0.0000E+00  0.2195E+01  0.5298E-07  0.0000E+00  0.0000E+00  0.1401E-44
REACH    2        0     1  0.3782E+03  0.5423E-01  0.5437E-01  0.0000E+00  0.5423E-01  0.1451E-07  0.1451E-07  0.3089E-05  0.2803E-44
REACH    3        0     1  0.1486E+04  0.1966E+00  0.1972E+00  0.0000E+00  0.1966E+00  0.1204E-07  0.1204E-07  0.7069E-06  0.4204E-44
REACH    4        0     1  0.9456E+04  0.2182E+01  0.2193E+01  0.0000E+00  0.2182E+01  0.1499E-07  0.0000E+00  0.0000E+00  0.5605E-44
REACH    5        0     1  0.2643E+03  0.4566E-01  0.4585E-01  0.0000E+00  0.4566E-01  0.3398E-07  0.3398E-07  0.8576E-05  0.7006E-44
REACH    6        0     1  0.7374E+03  0.1309E+00  0.1315E+00  0.0000E+00  0.1309E+00  0.7296E-07  0.0000E+00  0.0000E+00  0.8408E-44
REACH    7        0     1  0.3091E+03  0.2050E-02  0.2074E-02  0.0000E+00  0.2050E-02  0.3498E-07  0.3498E-07  0.1952E-03  0.9809E-44
REACH    8        0     1  0.4145E+03  0.8459E-01  0.8496E-01  0.0000E+00  0.8459E-01  0.2999E-07  0.2999E-07  0.4085E-05  0.1121E-43
REACH    9        0     1  0.2583E+04  0.4951E+00  0.4965E+00  0.0000E+00  0.4951E+00  0.4102E-07  0.0000E+00  0.0000E+00  0.1261E-43
REACH   10        0     1  0.1039E+04  0.2897E+00  0.2911E+00  0.0000E+00  0.2897E+00  0.1258E-07  0.1258E-07  0.5003E-06  0.1401E-43
REACH   11        0     1  0.4033E+04  0.8991E+00  0.9027E+00  0.0000E+00  0.8991E+00  0.3241E-07  0.0000E+00  0.0000E+00  0.1541E-43
REACH   12        0     1  0.4536E+04  0.1142E+01  0.1147E+01  0.0000E+00  0.1142E+01  0.4297E-07  0.0000E+00  0.0000E+00  0.1682E-43
REACH   13        0     1  0.3339E+03  0.1803E+00  0.1810E+00  0.0000E+00  0.1803E+00  0.1697E-07  0.1697E-07  0.1085E-05  0.1822E-43
REACH   14        0     1  0.4614E+04  0.1166E+01  0.1172E+01  0.0000E+00  0.1166E+01  0.1895E-07  0.0000E+00  0.0000E+00  0.1962E-43
REACH   15        0     1  0.8564E+04  0.2039E+01  0.2050E+01  0.0000E+00  0.2039E+01  0.2391E-07  0.0000E+00  0.0000E+00  0.2102E-43
REACH   16        0     1  0.4974E+04  0.1301E+01  0.1307E+01  0.0000E+00  0.1301E+01  0.4295E-07  0.0000E+00  0.0000E+00  0.2242E-43
REACH   17        0     1  0.2471E+04  0.4000E+00  0.4031E+00  0.0000E+00  0.4000E+00  0.4100E-07  0.0000E+00  0.0000E+00  0.2382E-43
REACH   18        0     1  0.2198E+03  0.9748E-01  0.9808E-01  0.0000E+00  0.9748E-01  0.2598E-07  0.2598E-07  0.3066E-05  0.2522E-43
REACH   19        0     1  0.2425E+04  0.3906E+00  0.3934E+00  0.0000E+00  0.3906E+00  0.7089E-07  0.0000E+00  0.0000E+00  0.2662E-43
REACH   20        0     1  0.3435E+03  0.5850E-01  0.5899E-01  0.0000E+00  0.5850E-01  0.2091E-07  0.2091E-07  0.4102E-05  0.2803E-43
REACH   21        0     1  0.1644E+04  0.2525E+00  0.2541E+00  0.0000E+00  0.2525E+00  0.6114E-07  0.0000E+00  0.0000E+00  0.2943E-43
REACH   22        0     1  0.6718E+03  0.7099E-01  0.7153E-01  0.0000E+00  0.7099E-01  0.1654E-07  0.1654E-07  0.2677E-05  0.3083E-43
REACH   23        0     1  0.3564E+03  0.9802E-01  0.9838E-01  0.0000E+00  0.9802E-01  0.1985E-07  0.1985E-07  0.2335E-05  0.3223E-43
REACH    1        0     2  0.9887E+04  0.2176E+01  0.2188E+01  0.0000E+00  0.2176E+01  0.5298E-07  0.0000E+00  0.0000E+00  0.1401E-44
REACH    2        0     2  0.3782E+03  0.5398E-01  0.5410E-01  0.0000E+00  0.5398E-01  0.1451E-07  0.1451E-07  0.3104E-05  0.2803E-44
REACH    3        0     2  0.1486E+04  0.1957E+00  0.1962E+00  0.0000E+00  0.1957E+00  0.1204E-07  0.1204E-07  0.7104E-06  0.4204E-44
REACH    4        0     2  0.9456E+04  0.2161E+01  0.2174E+01  0.0000E+00  0.2161E+01  0.1499E-07  0.0000E+00  0.0000E+00  0.5605E-44
REACH    5        0     2  0.2643E+03  0.4537E-01  0.4554E-01  0.0000E+00  0.4537E-01  0.3398E-07  0.3398E-07  0.8636E-05  0.7006E-44
REACH    6        0     2  0.7374E+03  0.1299E+00  0.1305E+00  0.0000E+00  0.1299E+00  0.7296E-07  0.0000E+00  0.0000E+00  0.8408E-44
REACH    7        0     2  0.3091E+03  0.1973E-02  0.1883E-02  0.0000E+00  0.1973E-02  0.3498E-07  0.3498E-07  0.2151E-03  0.9809E-44
REACH    8        0     2  0.4145E+03  0.8401E-01  0.8432E-01  0.0000E+00  0.8401E-01  0.2999E-07  0.2999E-07  0.4116E-05  0.1121E-43
REACH    9        0     2  0.2583E+04  0.4924E+00  0.4934E+00  0.0000E+00  0.4924E+00  0.4102E-07  0.0000E+00  0.0000E+00  0.1261E-43
REACH   10        0     2  0.1039E+04  0.2875E+00  0.2886E+00  0.0000E+00  0.2875E+00  0.1258E-07  0.1258E-07  0.5046E-06  0.1401E-43
REACH   11        0     2  0.4033E+04  0.8927E+00  0.8963E+00  0.0000E+00  0.8927E+00  0.3241E-07  0.0000E+00  0.0000E+00  0.1541E-43
REACH   12        0     2  0.4536E+04  0.1134E+01  0.1139E+01  0.0000E+00  0.1134E+01  0.4297E-07  0.0000E+00  0.0000E+00  0.1682E-43
REACH   13        0     2  0.3339E+03  0.1794E+00  0.1800E+00  0.0000E+00  0.1794E+00  0.1697E-07  0.1697E-07  0.1091E-05  0.1822E-43
REACH   14        0     2  0.4614E+04  0.1157E+01  0.1163E+01  0.0000E+00  0.1157E+01  0.1895E-07  0.0000E+00  0.0000E+00  0.1962E-43
REACH   15        0     2  0.8564E+04  0.2022E+01  0.2030E+01  0.0000E+00  0.2022E+01  0.2391E-07  0.0000E+00  0.0000E+00  0.2102E-43
REACH   16        0     2  0.4974E+04  0.1291E+01  0.1298E+01  0.0000E+00  0.1291E+01  0.4295E-07  0.0000E+00  0.0000E+00  0.2242E-43
REACH   17        0     2  0.2471E+04  0.3951E+00  0.3983E+00  0.0000E+00  0.3951E+00  0.4100E-07  0.0000E+00  0.0000E+00  0.2382E-43
REACH   18        0     2  0.2198E+03  0.9673E-01  0.9727E-01  0.0000E+00  0.9673E-01  0.2598E-07  0.2598E-07  0.3091E-05  0.2522E-43
REACH   19        0     2  0.2425E+04  0.3856E+00  0.3886E+00  0.0000E+00  0.3856E+00  0.7089E-07  0.0000E+00  0.0000E+00  0.2662E-43
REACH   20        0     2  0.3435E+03  0.5785E-01  0.5822E-01  0.0000E+00  0.5785E-01  0.2091E-07  0.2091E-07  0.4156E-05  0.2803E-43
REACH   21        0     2  0.1644E+04  0.2495E+00  0.2507E+00  0.0000E+00  0.2495E+00  0.6114E-07  0.0000E+00  0.0000E+00  0.2943E-43
REACH   22        0     2  0.6718E+03  0.7010E-01  0.7026E-01  0.0000E+00  0.7010E-01  0.1654E-07  0.1654E-07  0.2725E-05  0.3083E-43
REACH   23        0     2  0.3564E+03  0.9748E-01  0.9769E-01  0.0000E+00  0.9748E-01  0.1985E-07  0.1985E-07  0.2351E-05  0.3223E-43
REACH    1        0     3  0.9887E+04  0.2157E+01  0.2170E+01  0.0000E+00  0.2157E+01  0.5298E-07  0.0000E+00  0.0000E+00  0.1401E-44
REACH    2        0     3  0.3782E+03  0.5375E-01  0.5385E-01  0.0000E+00  0.5375E-01  0.1451E-07  0.1451E-07  0.3119E-05  0.2803E-44
REACH    3        0     3  0.1486E+04  0.1948E+00  0.1953E+00  0.0000E+00  0.1948E+00  0.1204E-07  0.1204E-07  0.7139E-06  0.4204E-44
REACH    4        0     3  0.9456E+04  0.2142E+01  0.2155E+01  0.0000E+00  0.2142E+01  0.1499E-07  0.0000E+00  0.0000E+00  0.5605E-44
REACH    5        0     3  0.2643E+03  0.4510E-01  0.4526E-01  0.0000E+00  0.4510E-01  0.3398E-07  0.3398E-07  0.8688E-05  0.7006E-44
REACH    6        0     3  0.7374E+03  0.1291E+00  0.1296E+00  0.0000E+00  0.1291E+00  0.7296E-07  0.0000E+00  0.0000E+00  0.8408E-44
REACH    7        0     3  0.3091E+03  0.1900E-02  0.1720E-02  0.0000E+00  0.1900E-02  0.3498E-07  0.3498E-07  0.2353E-03  0.9809E-44
REACH    8        0     3  0.4145E+03  0.8346E-01  0.8378E-01  0.0000E+00  0.8346E-01  0.2999E-07  0.2999E-07  0.4143E-05  0.1121E-43
REACH    9        0     3  0.2583E+04  0.4897E+00  0.4909E+00  0.0000E+00  0.4897E+00  0.4102E-07  0.0000E+00  0.0000E+00  0.1261E-43
REACH   10        0     3  0.1039E+04  0.2853E+00  0.2865E+00  0.0000E+00  0.2853E+00  0.1258E-07  0.1258E-07  0.5083E-06  0.1401E-43
REACH   11        0     3  0.4033E+04  0.8874E+00  0.8908E+00  0.0000E+00  0.8874E+00  0.3241E-07  0.0000E+00  0.0000E+00  0.1541E-43
REACH   12        0     3  0.4536E+04  0.1127E+01  0.1132E+01  0.0000E+00  0.1127E+01  0.4297E-07  0.0000E+00  0.0000E+00  0.1682E-43
REACH   13        0     3  0.3339E+03  0.1784E+00  0.1791E+00  0.0000E+00  0.1784E+00  0.1697E-07  0.1697E-07  0.1097E-05  0.1822E-43
REACH   14        0     3  0.4614E+04  0.1150E+01  0.1155E+01  0.0000E+00  0.1150E+01  0.1895E-07  0.0000E+00  0.0000E+00  0.1962E-43
REACH   15        0     3  0.8564E+04  0.2006E+01  0.2012E+01  0.0000E+00  0.2006E+01  0.2391E-07  0.0000E+00  0.0000E+00  0.2102E-43
REACH   16        0     3  0.4974E+04  0.1282E+01  0.1288E+01  0.0000E+00  0.1282E+01  0.4295E-07  0.0000E+00  0.0000E+00  0.2242E-43
REACH   17        0     3  0.2471E+04  0.3906E+00  0.3937E+00  0.0000E+00  0.3906E+00  0.4100E-07  0.0000E+00  0.0000E+00  0.2382E-43
REACH   18        0     3  0.2198E+03  0.9601E-01  0.9651E-01  0.0000E+00  0.9601E-01  0.2598E-07  0.2598E-07  0.3116E-05  0.2522E-43
REACH   19        0     3  0.2425E+04  0.3814E+00  0.3841E+00  0.0000E+00  0.3814E+00  0.7089E-07  0.0000E+00  0.0000E+00  0.2662E-43
REACH   20        0     3  0.3435E+03  0.5723E-01  0.5755E-01  0.0000E+00  0.5723E-01  0.2091E-07  0.2091E-07  0.4205E-05  0.2803E-43
REACH   21        0     3  0.1644E+04  0.2469E+00  0.2478E+00  0.0000E+00  0.2469E+00  0.6114E-07  0.0000E+00  0.0000E+00  0.2943E-43
REACH   22        0     3  0.6718E+03  0.6922E-01  0.6912E-01  0.0000E+00  0.6922E-01  0.1654E-07  0.1654E-07  0.2770E-05  0.3083E-43
REACH   23        0     3  0.3564E+03  0.9695E-01  0.9711E-01  0.0000E+00  0.9695E-01  0.1985E-07  0.1985E-07  0.2365E-05  0.3223E-43
REACH    1        0     4  0.9887E+04  0.2141E+01  0.2152E+01  0.0000E+00  0.2141E+01  0.5298E-07  0.0000E+00  0.0000E+00  0.1401E-44
REACH    2        0     4  0.3782E+03  0.5351E-01  0.5358E-01  0.0000E+00  0.5351E-01  0.1451E-07  0.1451E-07  0.3134E-05  0.2803E-44
REACH    3        0     4  0.1486E+04  0.1938E+00  0.1941E+00  0.0000E+00  0.1938E+00  0.1204E-07  0.1204E-07  0.7182E-06  0.4204E-44
REACH    4        0     4  0.9456E+04  0.2128E+01  0.2140E+01  0.0000E+00  0.2128E+01  0.1499E-07  0.0000E+00  0.0000E+00  0.5605E-44
REACH    5        0     4  0.2643E+03  0.4483E-01  0.4495E-01  0.0000E+00  0.4483E-01  0.3398E-07  0.3398E-07  0.8749E-05  0.7006E-44
REACH    6        0     4  0.7374E+03  0.1282E+00  0.1287E+00  0.0000E+00  0.1282E+00  0.7296E-07  0.0000E+00  0.0000E+00  0.8408E-44
REACH    7        0     4  0.3091E+03  0.1831E-02  0.1772E-02  0.0000E+00  0.1831E-02  0.3498E-07  0.3498E-07  0.2285E-03  0.9809E-44
REACH    8        0     4  0.4145E+03  0.8292E-01  0.8315E-01  0.0000E+00  0.8292E-01  0.2999E-07  0.2999E-07  0.4174E-05  0.1121E-43
REACH    9        0     4  0.2583E+04  0.4868E+00  0.4875E+00  0.0000E+00  0.4868E+00  0.4102E-07  0.0000E+00  0.0000E+00  0.1261E-43
REACH   10        0     4  0.1039E+04  0.2832E+00  0.2840E+00  0.0000E+00  0.2832E+00  0.1258E-07  0.1258E-07  0.5128E-06  0.1401E-43
REACH   11        0     4  0.4033E+04  0.8807E+00  0.8841E+00  0.0000E+00  0.8807E+00  0.3241E-07  0.0000E+00  0.0000E+00  0.1541E-43
REACH   12        0     4  0.4536E+04  0.1119E+01  0.1124E+01  0.0000E+00  0.1119E+01  0.4297E-07  0.0000E+00  0.0000E+00  0.1682E-43
REACH   13        0     4  0.3339E+03  0.1775E+00  0.1781E+00  0.0000E+00  0.1775E+00  0.1697E-07  0.1697E-07  0.1103E-05  0.1822E-43
REACH   14        0     4  0.4614E+04  0.1142E+01  0.1148E+01  0.0000E+00  0.1142E+01  0.1895E-07  0.0000E+00  0.0000E+00  0.1962E-43
REACH   15        0     4  0.8564E+04  0.1991E+01  0.1999E+01  0.0000E+00  0.1991E+01  0.2391E-07  0.0000E+00  0.0000E+00  0.2102E-43
REACH   16        0     4  0.4974E+04  0.1274E+01  0.1280E+01  0.0000E+00  0.1274E+01  0.4295E-07  0.0000E+00  0.0000E+00  0.2242E-43
REACH   17        0     4  0.2471E+04  0.3870E+00  0.3898E+00  0.0000E+00  0.3870E+00  0.4100E-07  0.0000E+00  0.0000E+00  0.2382E-43
REACH   18        0     4  0.2198E+03  0.9532E-01  0.9581E-01  0.0000E+00  0.9532E-01  0.2598E-07  0.2598E-07  0.3138E-05  0.2522E-43
REACH   19        0     4  0.2425E+04  0.3782E+00  0.3805E+00  0.0000E+00  0.3782E+00  0.7089E-07  0.0000E+00  0.0000E+00  0.2662E-43
REACH   20        0     4  0.3435E+03  0.5662E-01  0.5697E-01  0.0000E+00  0.5662E-01  0.2091E-07  0.2091E-07  0.4247E-05  0.2803E-43
REACH   21        0     4  0.1644E+04  0.2450E+00  0.2459E+00  0.0000E+00  0.2450E+00  0.6114E-07  0.0000E+00  0.0000E+00  0.2943E-43
REACH   22        0     4  0.6718E+03  0.6837E-01  0.6863E-01  0.0000E+00  0.6837E-01  0.1654E-07  0.1654E-07  0.2790E-05  0.3083E-43
REACH   23        0     4  0.3564E+03  0.9644E-01  0.9666E-01  0.0000E+00  0.9644E-01  0.1985E-07  0.1985E-07  0.2377E-05  0.3223E-43
REACH    1        0     5  0.9887E+04  0.2127E+01  0.2137E+01  0.0000E+00  0.2127E+01  0.5298E-07  0.0000E+00  0.0000E+00  0.1401E-44
REACH    2        0     5  0.3782E+03  0.5327E-01  0.5334E-01  0.0000E+00  0.5327E-01  0.1451E-07  0.1451E-07  0.3148E-05  0.2803E-44
REACH    3        0     5  0.1486E+04  0.1929E+00  0.1933E+00  0.0000E+00  0.1929E+00  0.1204E-07  0.1204E-07  0.7210E-06  0.4204E-44
REACH    4        0     5  0.9456E+04  0.2115E+01  0.2126E+01  0.0000E+00  0.2115E+01  0.1499E-07  0.0000E+00  0.0000E+00  0.5605E-44
REACH    5        0     5  0.2643E+03  0.4457E-01  0.4467E-01  0.0000E+00  0.4457E-01  0.3398E-07  0.3398E-07  0.8803E-05  0.7006E-44
REACH    6        0     5  0.7374E+03  0.1273E+00  0.1278E+00  0.0000E+00  0.1273E+00  0.7296E-07  0.0000E+00  0.0000E+00  0.8408E-44
REACH    7        0     5  0.3091E+03  0.1767E-02  0.1763E-02  0.0000E+00  0.1767E-02  0.3498E-07  0.3498E-07  0.2296E-03  0.9809E-44
REACH    8        0     5  0.4145E+03  0.8240E-01  0.8259E-01  0.0000E+00  0.8240E-01  0.2999E-07  0.2999E-07  0.4202E-05  0.1121E-43
REACH    9        0     5  0.2583E+04  0.4844E+00  0.4847E+00  0.0000E+00  0.4844E+00  0.4102E-07  0.0000E+00  0.0000E+00  0.1261E-43
REACH   10        0     5  0.1039E+04  0.2811E+00  0.2818E+00  0.0000E+00  0.2811E+00  0.1258E-07  0.1258E-07  0.5168E-06  0.1401E-43
REACH   11        0     5  0.4033E+04  0.8750E+00  0.8780E+00  0.0000E+00  0.8750E+00  0.3241E-07  0.0000E+00  0.0000E+00  0.1541E-43
REACH   12        0     5  0.4536E+04  0.1112E+01  0.1117E+01  0.0000E+00  0.1112E+01  0.4297E-07  0.0000E+00  0.0000E+00  0.1682E-43
REACH   13        0     5  0.3339E+03  0.1767E+00  0.1772E+00  0.0000E+00  0.1767E+00  0.1697E-07  0.1697E-07  0.1108E-05  0.1822E-43
REACH   14        0     5  0.4614E+04  0.1135E+01  0.1140E+01  0.0000E+00  0.1135E+01  0.1895E-07  0.0000E+00  0.0000E+00  0.1962E-43
REACH   15        0     5  0.8564E+04  0.1978E+01  0.1987E+01  0.0000E+00  0.1978E+01  0.2391E-07  0.0000E+00  0.0000E+00  0.2102E-43
REACH   16        0     5  0.4974E+04  0.1266E+01  0.1272E+01  0.0000E+00  0.1266E+01  0.4295E-07  0.0000E+00  0.0000E+00  0.2242E-43
REACH   17        0     5  0.2471E+04  0.3840E+00  0.3865E+00  0.0000E+00  0.3840E+00  0.4100E-07  0.0000E+00  0.0000E+00  0.2382E-43
REACH   18        0     5  0.2198E+03  0.9465E-01  0.9515E-01  0.0000E+00  0.9465E-01  0.2598E-07  0.2598E-07  0.3160E-05  0.2522E-43
REACH   19        0     5  0.2425E+04  0.3753E+00  0.3775E+00  0.0000E+00  0.3753E+00  0.7089E-07  0.0000E+00  0.0000E+00  0.2662E-43
REACH   20        0     5  0.3435E+03  0.5604E-01  0.5643E-01  0.0000E+00  0.5604E-01  0.2091E-07  0.2091E-07  0.4288E-05  0.2803E-43
REACH   21        0     5  0.1644E+04  0.2430E+00  0.2442E+00  0.0000E+00  0.2430E+00  0.6114E-07  0.0000E+00  0.0000E+00  0.2943E-43
REACH   22        0     5  0.6718E+03  0.6754E-01  0.6796E-01  0.0000E+00  0.6754E-01  0.1654E-07  0.1654E-07  0.2817E-05  0.3083E-43
REACH   23        0     5  0.3564E+03  0.9594E-01  0.9623E-01  0.0000E+00  0.9594E-01  0.1985E-07  0.1985E-07  0.2387E-05  0.3223E-43
REACH    1        0     6  0.9887E+04  0.2113E+01  0.2123E+01  0.0000E+00  0.2113E+01  0.5298E-07  0.0000E+00  0.0000E+00  0.1401E-44
REACH    2        0     6  0.3782E+03  0.5304E-01  0.5316E-01  0.0000E+00  0.5304E-01  0.1451E-07  0.1451E-07  0.3159E-05  0.2803E-44
REACH    3        0     6  0.1486E+04  0.1921E+00  0.1925E+00  0.0000E+00  0.1921E+00  0.1204E-07  0.1204E-07  0.7242E-06  0.4204E-44
REACH    4        0     6  0.9456E+04  0.2101E+01  0.2112E+01  0.0000E+00  0.2101E+01  0.1499E-07  0.0000E+00  0.0000E+00  0.5605E-44
REACH    5        0     6  0.2643E+03  0.4432E-01  0.4446E-01  0.0000E+00  0.4432E-01  0.3398E-07  0.3398E-07  0.8845E-05  0.7006E-44
REACH    6        0     6  0.7374E+03  0.1267E+00  0.1272E+00  0.0000E+00  0.1267E+00  0.7296E-07  0.0000E+00  0.0000E+00  0.8408E-44
REACH    7        0     6  0.3091E+03  0.1706E-02  0.1704E-02  0.0000E+00  0.1706E-02  0.3498E-07  0.3498E-07  0.2376E-03  0.9809E-44
REACH    8        0     6  0.4145E+03  0.8190E-01  0.8217E-01  0.0000E+00  0.8190E-01  0.2999E-07  0.2999E-07  0.4224E-05  0.1121E-43
REACH    9        0     6  0.2583E+04  0.4820E+00  0.4830E+00  0.0000E+00  0.4820E+00  0.4102E-07  0.0000E+00  0.0000E+00  0.1261E-43
REACH   10        0     6  0.1039E+04  0.2791E+00  0.2802E+00  0.0000E+00  0.2791E+00  0.1258E-07  0.1258E-07  0.5198E-06  0.1401E-43
REACH   11        0     6  0.4033E+04  0.8711E+00  0.8738E+00  0.0000E+00  0.8711E+00  0.3241E-07  0.0000E+00  0.0000E+00  0.1541E-43
REACH   12        0     6  0.4536E+04  0.1106E+01  0.1111E+01  0.0000E+00  0.1106E+01  0.4297E-07  0.0000E+00  0.0000E+00  0.1682E-43
REACH   13        0     6  0.3339E+03  0.1758E+00  0.1764E+00  0.0000E+00  0.1758E+00  0.1697E-07  0.1697E-07  0.1114E-05  0.1822E-43
REACH   14        0     6  0.4614E+04  0.1128E+01  0.1133E+01  0.0000E+00  0.1128E+01  0.1895E-07  0.0000E+00  0.0000E+00  0.1962E-43
REACH   15        0     6  0.8564E+04  0.1965E+01  0.1974E+01  0.0000E+00  0.1965E+01  0.2391E-07  0.0000E+00  0.0000E+00  0.2102E-43
REACH   16        0     6  0.4974E+04  0.1258E+01  0.1264E+01  0.0000E+00  0.1258E+01  0.4295E-07  0.0000E+00  0.0000E+00  0.2242E-43
REACH   17        0     6  0.2471E+04  0.3807E+00  0.3831E+00  0.0000E+00  0.3807E+00  0.4100E-07  0.0000E+00  0.0000E+00  0.2382E-43
REACH   18        0     6  0.2198E+03  0.9401E-01  0.9449E-01  0.0000E+00  0.9401E-01  0.2598E-07  0.2598E-07  0.3182E-05  0.2522E-43
REACH   19        0     6  0.2425E+04  0.3720E+00  0.3743E+00  0.0000E+00  0.3720E+00  0.7089E-07  0.0000E+00  0.0000E+00  0.2662E-43
REACH   20        0     6  0.3435E+03  0.5547E-01  0.5586E-01  0.0000E+00  0.5547E-01  0.2091E-07  0.2091E-07  0.4332E-05  0.2803E-43
REACH   21        0     6  0.1644E+04  0.2409E+00  0.2421E+00  0.0000E+00  0.2409E+00  0.6114E-07  0.0000E+00  0.0000E+00  0.2943E-43
REACH   22        0     6  0.6718E+03  0.6673E-01  0.6715E-01  0.0000E+00  0.6673E-01  0.1654E-07  0.1654E-07  0.2851E-05  0.3083E-43
REACH   23        0     6  0.3564E+03  0.9544E-01  0.9574E-01  0.0000E+00  0.9544E-01  0.1985E-07  0.1985E-07  0.2399E-05  0.3223E-43
REACH    1        0     7  0.9887E+04  0.2099E+01  0.2108E+01  0.0000E+00  0.2099E+01  0.5298E-07  0.0000E+00  0.0000E+00  0.1401E-44
REACH    2        0     7  0.3782E+03  0.5281E-01  0.5294E-01  0.0000E+00  0.5281E-01  0.1451E-07  0.1451E-07  0.3172E-05  0.2803E-44
REACH    3        0     7  0.1486E+04  0.1912E+00  0.1916E+00  0.0000E+00  0.1912E+00  0.1204E-07  0.1204E-07  0.7274E-06  0.4204E-44
REACH    4        0     7  0.9456E+04  0.2087E+01  0.2098E+01  0.0000E+00  0.2087E+01  0.1499E-07  0.0000E+00  0.0000E+00  0.5605E-44
REACH    5        0     7  0.2643E+03  0.4407E-01  0.4422E-01  0.0000E+00  0.4407E-01  0.3398E-07  0.3398E-07  0.8893E-05  0.7006E-44
REACH    6        0     7  0.7374E+03  0.1260E+00  0.1265E+00  0.0000E+00  0.1260E+00  0.7296E-07  0.0000E+00  0.0000E+00  0.8408E-44
REACH    7        0     7  0.3091E+03  0.1648E-02  0.1637E-02  0.0000E+00  0.1648E-02  0.3498E-07  0.3498E-07  0.2474E-03  0.9809E-44
REACH    8        0     7  0.4145E+03  0.8141E-01  0.8170E-01  0.0000E+00  0.8141E-01  0.2999E-07  0.2999E-07  0.4248E-05  0.1121E-43
REACH    9        0     7  0.2583E+04  0.4796E+00  0.4807E+00  0.0000E+00  0.4796E+00  0.4102E-07  0.0000E+00  0.0000E+00  0.1261E-43
REACH   10        0     7  0.1039E+04  0.2772E+00  0.2783E+00  0.0000E+00  0.2772E+00  0.1258E-07  0.1258E-07  0.5233E-06  0.1401E-43
REACH   11        0     7  0.4033E+04  0.8662E+00  0.8692E+00  0.0000E+00  0.8662E+00  0.3241E-07  0.0000E+00  0.0000E+00  0.1541E-43
REACH   12        0     7  0.4536E+04  0.1101E+01  0.1105E+01  0.0000E+00  0.1101E+01  0.4297E-07  0.0000E+00  0.0000E+00  0.1682E-43
REACH   13        0     7  0.3339E+03  0.1750E+00  0.1756E+00  0.0000E+00  0.1750E+00  0.1697E-07  0.1697E-07  0.1119E-05  0.1822E-43
REACH   14        0     7  0.4614E+04  0.1122E+01  0.1127E+01  0.0000E+00  0.1122E+01  0.1895E-07  0.0000E+00  0.0000E+00  0.1962E-43
REACH   15        0     7  0.8564E+04  0.1952E+01  0.1960E+01  0.0000E+00  0.1952E+01  0.2391E-07  0.0000E+00  0.0000E+00  0.2102E-43
REACH   16        0     7  0.4974E+04  0.1251E+01  0.1256E+01  0.0000E+00  0.1251E+01  0.4295E-07  0.0000E+00  0.0000E+00  0.2242E-43
REACH   17        0     7  0.2471E+04  0.3774E+00  0.3798E+00  0.0000E+00  0.3774E+00  0.4100E-07  0.0000E+00  0.0000E+00  0.2382E-43
REACH   18        0     7  0.2198E+03  0.9339E-01  0.9385E-01  0.0000E+00  0.9339E-01  0.2598E-07  0.2598E-07  0.3204E-05  0.2522E-43
REACH   19        0     7  0.2425E+04  0.3687E+00  0.3710E+00  0.0000E+00  0.3687E+00  0.7089E-07  0.0000E+00  0.0000E+00  0.2662E-43
REACH   20        0     7  0.3435E+03  0.5493E-01  0.5530E-01  0.0000E+00  0.5493E-01  0.2091E-07  0.2091E-07  0.4376E-05  0.2803E-43
REACH   21        0     7  0.1644E+04  0.2387E+00  0.2399E+00  0.0000E+00  0.2387E+00  0.6114E-07  0.0000E+00  0.0000E+00  0.2943E-43
REACH   22        0     7  0.6718E+03  0.6594E-01  0.6632E-01  0.0000E+00  0.6594E-01  0.1654E-07  0.1654E-07  0.2887E-05  0.3083E-43
REACH   23        0     7  0.3564E+03  0.9496E-01  0.9524E-01  0.0000E+00  0.9496E-01  0.1985E-07  0.1985E-07  0.2412E-05  0.3223E-43
REACH    1        0     8  0.9887E+04  0.2085E+01  0.2093E+01  0.0000E+00  0.2085E+01  0.5298E-07  0.0000E+00  0.0000E+00  0.1401E-44
REACH    2        0     8  0.3782E+03  0.5258E-01  0.5270E-01  0.0000E+00  0.5258E-01  0.1451E-07  0.1451E-07  0.3186E-05  0.2803E-44
REACH    3        0     8  0.1486E+04  0.1903E+00  0.1908E+00  0.0000E+00  0.1903E+00  0.1204E-07  0.1204E-07  0.7307E-06  0.4204E-44
REACH    4        0     8  0.9456E+04  0.2074E+01  0.2084E+01  0.0000E+00  0.2074E+01  0.1499E-07  0.0000E+00  0.0000E+00  0.5605E-44
REACH    5        0     8  0.2643E+03  0.4383E-01  0.4397E-01  0.0000E+00  0.4383E-01  0.3398E-07  0.3398E-07  0.8944E-05  0.7006E-44
REACH    6        0     8  0.7374E+03  0.1252E+00  0.1257E+00  0.0000E+00  0.1252E+00  0.7296E-07  0.0000E+00  0.0000E+00  0.8408E-44
REACH    7        0     8  0.3091E+03  0.1594E-02  0.1582E-02  0.0000E+00  0.1594E-02  0.3498E-07  0.3498E-07  0.2559E-03  0.9809E-44
REACH    8        0     8  0.4145E+03  0.8094E-01  0.8120E-01  0.0000E+00  0.8094E-01  0.2999E-07  0.2999E-07  0.4274E-05  0.1121E-43
REACH    9        0     8  0.2583E+04  0.4772E+00  0.4782E+00  0.0000E+00  0.4772E+00  0.4102E-07  0.0000E+00  0.0000E+00  0.1261E-43
REACH   10        0     8  0.1039E+04  0.2753E+00  0.2763E+00  0.0000E+00  0.2753E+00  0.1258E-07  0.1258E-07  0.5271E-06  0.1401E-43
REACH   11        0     8  0.4033E+04  0.8610E+00  0.8640E+00  0.0000E+00  0.8610E+00  0.3241E-07  0.0000E+00  0.0000E+00  0.1541E-43
REACH   12        0     8  0.4536E+04  0.1094E+01  0.1099E+01  0.0000E+00  0.1094E+01  0.4297E-07  0.0000E+00  0.0000E+00  0.1682E-43
REACH   13        0     8  0.3339E+03  0.1742E+00  0.1747E+00  0.0000E+00  0.1742E+00  0.1697E-07  0.1697E-07  0.1124E-05  0.1822E-43
REACH   14        0     8  0.4614E+04  0.1116E+01  0.1120E+01  0.0000E+00  0.1116E+01  0.1895E-07  0.0000E+00  0.0000E+00  0.1962E-43
REACH   15        0     8  0.8564E+04  0.1940E+01  0.1948E+01  0.0000E+00  0.1940E+01  0.2391E-07  0.0000E+00  0.0000E+00  0.2102E-43
REACH   16        0     8  0.4974E+04  0.1243E+01  0.1249E+01  0.0000E+00  0.1243E+01  0.4295E-07  0.0000E+00  0.0000E+00  0.2242E-43
REACH   17        0     8  0.2471E+04  0.3741E+00  0.3765E+00  0.0000E+00  0.3741E+00  0.4100E-07  0.0000E+00  0.0000E+00  0.2382E-43
REACH   18        0     8  0.2198E+03  0.9280E-01  0.9324E-01  0.0000E+00  0.9280E-01  0.2598E-07  0.2598E-07  0.3225E-05  0.2522E-43
REACH   19        0     8  0.2425E+04  0.3655E+00  0.3677E+00  0.0000E+00  0.3655E+00  0.7089E-07  0.0000E+00  0.0000E+00  0.2662E-43
REACH   20        0     8  0.3435E+03  0.5440E-01  0.5476E-01  0.0000E+00  0.5440E-01  0.2091E-07  0.2091E-07  0.4419E-05  0.2803E-43
REACH   21        0     8  0.1644E+04  0.2366E+00  0.2378E+00  0.0000E+00  0.2366E+00  0.6114E-07  0.0000E+00  0.0000E+00  0.2943E-43
REACH   22        0     8  0.6718E+03  0.6517E-01  0.6555E-01  0.0000E+00  0.6517E-01  0.1654E-07  0.1654E-07  0.2921E-05  0.3083E-43
REACH   23        0     8  0.3564E+03  0.9448E-01  0.9477E-01  0.0000E+00  0.9448E-01  0.1985E-07  0.1985E-07  0.2424E-05  0.3223E-43
REACH    1        0     9  0.9887E+04  0.2071E+01  0.2079E+01  0.0000E+00  0.2071E+01  0.5298E-07  0.0000E+00  0.0000E+00  0.1401E-44
REACH    2        0     9  0.3782E+03  0.5235E-01  0.5245E-01  0.0000E+00  0.5235E-01  0.1451E-07  0.1451E-07  0.3202E-05  0.2803E-44
REACH    3        0     9  0.1486E+04  0.1894E+00  0.1899E+00  0.0000E+00  0.1894E+00  0.1204E-07  0.1204E-07  0.7341E-06  0.4204E-44
REACH    4        0     9  0.9456E+04  0.2061E+01  0.2070E+01  0.0000E+00  0.2061E+01  0.1499E-07  0.0000E+00  0.0000E+00  0.5605E-44
REACH    5        0     9  0.2643E+03  0.4360E-01  0.4371E-01  0.0000E+00  0.4360E-01  0.3398E-07  0.3398E-07  0.8997E-05  0.7006E-44
REACH    6        0     9  0.7374E+03  0.1245E+00  0.1249E+00  0.0000E+00  0.1245E+00  0.7296E-07  0.0000E+00  0.0000E+00  0.8408E-44
REACH    7        0     9  0.3091E+03  0.1543E-02  0.1521E-02  0.0000E+00  0.1543E-02  0.3498E-07  0.3498E-07  0.2662E-03  0.9809E-44
REACH    8        0     9  0.4145E+03  0.8048E-01  0.8068E-01  0.0000E+00  0.8048E-01  0.2999E-07  0.2999E-07  0.4302E-05  0.1121E-43
REACH    9        0     9  0.2583E+04  0.4747E+00  0.4754E+00  0.0000E+00  0.4747E+00  0.4102E-07  0.0000E+00  0.0000E+00  0.1261E-43
REACH   10        0     9  0.1039E+04  0.2734E+00  0.2742E+00  0.0000E+00  0.2734E+00  0.1258E-07  0.1258E-07  0.5312E-06  0.1401E-43
REACH   11        0     9  0.4033E+04  0.8555E+00  0.8583E+00  0.0000E+00  0.8555E+00  0.3241E-07  0.0000E+00  0.0000E+00  0.1541E-43
REACH   12        0     9  0.4536E+04  0.1087E+01  0.1092E+01  0.0000E+00  0.1087E+01  0.4297E-07  0.0000E+00  0.0000E+00  0.1682E-43
REACH   13        0     9  0.3339E+03  0.1734E+00  0.1739E+00  0.0000E+00  0.1734E+00  0.1697E-07  0.1697E-07  0.1129E-05  0.1822E-43
REACH   14        0     9  0.4614E+04  0.1109E+01  0.1114E+01  0.0000E+00  0.1109E+01  0.1895E-07  0.0000E+00  0.0000E+00  0.1962E-43
REACH   15        0     9  0.8564E+04  0.1927E+01  0.1935E+01  0.0000E+00  0.1927E+01  0.2391E-07  0.0000E+00  0.0000E+00  0.2102E-43
REACH   16        0     9  0.4974E+04  0.1236E+01  0.1241E+01  0.0000E+00  0.1236E+01  0.4295E-07  0.0000E+00  0.0000E+00  0.2242E-43
REACH   17        0     9  0.2471E+04  0.3708E+00  0.3732E+00  0.0000E+00  0.3708E+00  0.4100E-07  0.0000E+00  0.0000E+00  0.2382E-43
REACH   18        0     9  0.2198E+03  0.9222E-01  0.9265E-01  0.0000E+00  0.9222E-01  0.2598E-07  0.2598E-07  0.3245E-05  0.2522E-43
REACH   19        0     9  0.2425E+04  0.3623E+00  0.3645E+00  0.0000E+00  0.3623E+00  0.7089E-07  0.0000E+00  0.0000E+00  0.2662E-43
REACH   20        0     9  0.3435E+03  0.5390E-01  0.5424E-01  0.0000E+00  0.5390E-01  0.2091E-07  0.2091E-07  0.4462E-05  0.2803E-43
REACH   21        0     9  0.1644E+04  0.2346E+00  0.2357E+00  0.0000E+00  0.2346E+00  0.6114E-07  0.0000E+00  0.0000E+00  0.2943E-43
REACH   22        0     9  0.6718E+03  0.6442E-01  0.6476E-01  0.0000E+00  0.6442E-01  0.1654E-07  0.1654E-07  0.2957E-05  0.3083E-43
REACH   23        0     9  0.3564E+03  0.9402E-01  0.9429E-01  0.0000E+00  0.9402E-01  0.1985E-07  0.1985E-07  0.2436E-05  0.3223E-43
REACH    1        0    10  0.9887E+04  0.2059E+01  0.2066E+01  0.0000E+00  0.2059E+01  0.5298E-07  0.0000E+00  0.0000E+00  0.1401E-44
REACH    2        0    10  0.3782E+03  0.5212E-01  0.5225E-01  0.0000E+00  0.5212E-01  0.1451E-07  0.1451E-07  0.3214E-05  0.2803E-44
REACH    3        0    10  0.1486E+04  0.1886E+00  0.1890E+00  0.0000E+00  0.1886E+00  0.1204E-07  0.1204E-07  0.7374E-06  0.4204E-44
REACH    4        0    10  0.9456E+04  0.2048E+01  0.2057E+01  0.0000E+00  0.2048E+01  0.1499E-07  0.0000E+00  0.0000E+00  0.5605E-44
REACH    5        0    10  0.2643E+03  0.4338E-01  0.4350E-01  0.0000E+00  0.4338E-01  0.3398E-07  0.3398E-07  0.9039E-05  0.7006E-44
REACH    6        0    10  0.7374E+03  0.1239E+00  0.1243E+00  0.0000E+00  0.1239E+00  0.7296E-07  0.0000E+00  0.0000E+00  0.8408E-44
REACH    7        0    10  0.3091E+03  0.1495E-02  0.1467E-02  0.0000E+00  0.1495E-02  0.3498E-07  0.3498E-07  0.2761E-03  0.9809E-44
REACH    8        0    10  0.4145E+03  0.8004E-01  0.8028E-01  0.0000E+00  0.8004E-01  0.2999E-07  0.2999E-07  0.4323E-05  0.1121E-43
REACH    9        0    10  0.2583E+04  0.4724E+00  0.4735E+00  0.0000E+00  0.4724E+00  0.4102E-07  0.0000E+00  0.0000E+00  0.1261E-43
REACH   10        0    10  0.1039E+04  0.2716E+00  0.2726E+00  0.0000E+00  0.2716E+00  0.1258E-07  0.1258E-07  0.5343E-06  0.1401E-43
REACH   11        0    10  0.4033E+04  0.8514E+00  0.8541E+00  0.0000E+00  0.8514E+00  0.3241E-07  0.0000E+00  0.0000E+00  0.1541E-43
REACH   12        0    10  0.4536E+04  0.1082E+01  0.1086E+01  0.0000E+00  0.1082E+01  0.4297E-07  0.0000E+00  0.0000E+00  0.1682E-43
REACH   13        0    10  0.3339E+03  0.1726E+00  0.1732E+00  0.0000E+00  0.1726E+00  0.1697E-07  0.1697E-07  0.1134E-05  0.1822E-43
REACH   14        0    10  0.4614E+04  0.1103E+01  0.1107E+01  0.0000E+00  0.1103E+01  0.1895E-07  0.0000E+00  0.0000E+00  0.1962E-43
REACH   15        0    10  0.8564E+04  0.1915E+01  0.1923E+01  0.0000E+00  0.1915E+01  0.2391E-07  0.0000E+00  0.0000E+00  0.2102E-43
REACH   16        0    10  0.4974E+04  0.1229E+01  0.1234E+01  0.0000E+00  0.1229E+01  0.4295E-07  0.0000E+00  0.0000E+00  0.2242E-43
REACH   17        0    10  0.2471E+04  0.3676E+00  0.3699E+00  0.0000E+00  0.3676E+00  0.4100E-07  0.0000E+00  0.0000E+00  0.2382E-43
REACH   18        0    10  0.2198E+03  0.9167E-01  0.9208E-01  0.0000E+00  0.9167E-01  0.2598E-07  0.2598E-07  0.3266E-05  0.2522E-43
REACH   19        0    10  0.2425E+04  0.3592E+00  0.3613E+00  0.0000E+00  0.3592E+00  0.7089E-07  0.0000E+00  0.0000E+00  0.2662E-43
REACH   20        0    10  0.3435E+03  0.5340E-01  0.5373E-01  0.0000E+00  0.5340E-01  0.2091E-07  0.2091E-07  0.4504E-05  0.2803E-43
REACH   21        0    10  0.1644E+04  0.2326E+00  0.2337E+00  0.0000E+00  0.2326E+00  0.6114E-07  0.0000E+00  0.0000E+00  0.2943E-43
REACH   22        0    10  0.6718E+03  0.6369E-01  0.6400E-01  0.0000E+00  0.6369E-01  0.1654E-07  0.1654E-07  0.2992E-05  0.3083E-43
REACH   23        0    10  0.3564E+03  0.9356E-01  0.9382E-01  0.0000E+00  0.9356E-01  0.1985E-07  0.1985E-07  0.2448E-05  0.3223E-43
REACH    1        0    11  0.9887E+04  0.2046E+01  0.2054E+01  0.0000E+00  0.2046E+01  0.5298E-07  0.0000E+00  0.0000E+00  0.1401E-44
REACH    2        0    11  0.3782E+03  0.5190E-01  0.5202E-01  0.0000E+00  0.5190E-01  0.1451E-07  0.1451E-07  0.3228E-05  0.2803E-44
REACH    3        0    11  0.1486E+04  0.1878E+00  0.1882E+00  0.0000E+00  0.1878E+00  0.1204E-07  0.1204E-07  0.7407E-06  0.4204E-44
REACH    4        0    11  0.9456E+04  0.2036E+01  0.2045E+01  0.0000E+00  0.2036E+01  0.1499E-07  0.0000E+00  0.0000E+00  0.5605E-44
REACH    5        0    11  0.2643E+03  0.4316E-01  0.4328E-01  0.0000E+00  0.4316E-01  0.3398E-07  0.3398E-07  0.9086E-05  0.7006E-44
REACH    6        0    11  0.7374E+03  0.1232E+00  0.1236E+00  0.0000E+00  0.1232E+00  0.7296E-07  0.0000E+00  0.0000E+00  0.8408E-44
REACH    7        0    11  0.3091E+03  0.1449E-02  0.1451E-02  0.0000E+00  0.1449E-02  0.3498E-07  0.3498E-07  0.2790E-03  0.9809E-44
REACH    8        0    11  0.4145E+03  0.7960E-01  0.7984E-01  0.0000E+00  0.7960E-01  0.2999E-07  0.2999E-07  0.4347E-05  0.1121E-43
REACH    9        0    11  0.2583E+04  0.4701E+00  0.4711E+00  0.0000E+00  0.4701E+00  0.4102E-07  0.0000E+00  0.0000E+00  0.1261E-43
REACH   10        0    11  0.1039E+04  0.2698E+00  0.2708E+00  0.0000E+00  0.2698E+00  0.1258E-07  0.1258E-07  0.5378E-06  0.1401E-43
REACH   11        0    11  0.4033E+04  0.8466E+00  0.8494E+00  0.0000E+00  0.8466E+00  0.3241E-07  0.0000E+00  0.0000E+00  0.1541E-43
REACH   12        0    11  0.4536E+04  0.1076E+01  0.1080E+01  0.0000E+00  0.1076E+01  0.4297E-07  0.0000E+00  0.0000E+00  0.1682E-43
REACH   13        0    11  0.3339E+03  0.1719E+00  0.1724E+00  0.0000E+00  0.1719E+00  0.1697E-07  0.1697E-07  0.1139E-05  0.1822E-43
REACH   14        0    11  0.4614E+04  0.1097E+01  0.1101E+01  0.0000E+00  0.1097E+01  0.1895E-07  0.0000E+00  0.0000E+00  0.1962E-43
REACH   15        0    11  0.8564E+04  0.1904E+01  0.1912E+01  0.0000E+00  0.1904E+01  0.2391E-07  0.0000E+00  0.0000E+00  0.2102E-43
REACH   16        0    11  0.4974E+04  0.1222E+01  0.1227E+01  0.0000E+00  0.1222E+01  0.4295E-07  0.0000E+00  0.0000E+00  0.2242E-43
REACH   17        0    11  0.2471E+04  0.3648E+00  0.3670E+00  0.0000E+00  0.3648E+00  0.4100E-07  0.0000E+00  0.0000E+00  0.2382E-43
REACH   18        0    11  0.2198E+03  0.9113E-01  0.9153E-01  0.0000E+00  0.9113E-01  0.2598E-07  0.2598E-07  0.3285E-05  0.2522E-43
REACH   19        0    11  0.2425E+04  0.3565E+00  0.3585E+00  0.0000E+00  0.3565E+00  0.7089E-07  0.0000E+00  0.0000E+00  0.2662E-43
REACH   20        0    11  0.3435E+03  0.5293E-01  0.5327E-01  0.0000E+00  0.5293E-01  0.2091E-07  0.2091E-07  0.4543E-05  0.2803E-43
REACH   21        0    11  0.1644E+04  0.2308E+00  0.2320E+00  0.0000E+00  0.2308E+00  0.6114E-07  0.0000E+00  0.0000E+00  0.2943E-43
REACH   22        0    11  0.6718E+03  0.6297E-01  0.6337E-01  0.0000E+00  0.6297E-01  0.1654E-07  0.1654E-07  0.3021E-05  0.3083E-43
REACH   23        0    11  0.3564E+03  0.9311E-01  0.9340E-01  0.0000E+00  0.9311E-01  0.1985E-07  0.1985E-07  0.2459E-05  0.3223E-43
REACH    1        0    12  0.9887E+04  0.2034E+01  0.2041E+01  0.0000E+00  0.2034E+01  0.5298E-07  0.0000E+00  0.0000E+00  0.1401E-44
REACH    2        0    12  0.3782E+03  0.5167E-01  0.5178E-01  0.0000E+00  0.5167E-01  0.1451E-07  0.1451E-07  0.3243E-05  0.2803E-44
REACH    3        0    12  0.1486E+04  0.1869E+00  0.1874E+00  0.0000E+00  0.1869E+00  0.1204E-07  0.1204E-07  0.7440E-06  0.4204E-44
REACH    4        0    12  0.9456E+04  0.2024E+01  0.2033E+01  0.0000E+00  0.2024E+01  0.1499E-07  0.0000E+00  0.0000E+00  0.5605E-44
REACH    5        0    12  0.2643E+03  0.4294E-01  0.4305E-01  0.0000E+00  0.4294E-01  0.3398E-07  0.3398E-07  0.9136E-05  0.7006E-44
REACH    6        0    12  0.7374E+03  0.1225E+00  0.1229E+00  0.0000E+00  0.1225E+00  0.7296E-07  0.0000E+00  0.0000E+00  0.8408E-44
REACH    7        0    12  0.3091E+03  0.1406E-02  0.1419E-02  0.0000E+00  0.1406E-02  0.3498E-07  0.3498E-07  0.2853E-03  0.9809E-44
REACH    8        0    12  0.4145E+03  0.7918E-01  0.7937E-01  0.0000E+00  0.7918E-01  0.2999E-07  0.2999E-07  0.4373E-05  0.1121E-43
REACH    9        0    12  0.2583E+04  0.4678E+00  0.4685E+00  0.0000E+00  0.4678E+00  0.4102E-07  0.0000E+00  0.0000E+00  0.1261E-43
REACH   10        0    12  0.1039E+04  0.2681E+00  0.2688E+00  0.0000E+00  0.2681E+00  0.1258E-07  0.1258E-07  0.5417E-06  0.1401E-43
REACH   11        0    12  0.4033E+04  0.8415E+00  0.8442E+00  0.0000E+00  0.8415E+00  0.3241E-07  0.0000E+00  0.0000E+00  0.1541E-43
REACH   12        0    12  0.4536E+04  0.1070E+01  0.1074E+01  0.0000E+00  0.1070E+01  0.4297E-07  0.0000E+00  0.0000E+00  0.1682E-43
REACH   13        0    12  0.3339E+03  0.1711E+00  0.1716E+00  0.0000E+00  0.1711E+00  0.1697E-07  0.1697E-07  0.1145E-05  0.1822E-43
REACH   14        0    12  0.4614E+04  0.1091E+01  0.1095E+01  0.0000E+00  0.1091E+01  0.1895E-07  0.0000E+00  0.0000E+00  0.1962E-43
REACH   15        0    12  0.8564E+04  0.1893E+01  0.1901E+01  0.0000E+00  0.1893E+01  0.2391E-07  0.0000E+00  0.0000E+00  0.2102E-43
REACH   16        0    12  0.4974E+04  0.1215E+01  0.1220E+01  0.0000E+00  0.1215E+01  0.4295E-07  0.0000E+00  0.0000E+00  0.2242E-43
REACH   17        0    12  0.2471E+04  0.3620E+00  0.3641E+00  0.0000E+00  0.3620E+00  0.4100E-07  0.0000E+00  0.0000E+00  0.2382E-43
REACH   18        0    12  0.2198E+03  0.9061E-01  0.9100E-01  0.0000E+00  0.9061E-01  0.2598E-07  0.2598E-07  0.3304E-05  0.2522E-43
REACH   19        0    12  0.2425E+04  0.3537E+00  0.3557E+00  0.0000E+00  0.3537E+00  0.7089E-07  0.0000E+00  0.0000E+00  0.2662E-43
REACH   20        0    12  0.3435E+03  0.5247E-01  0.5280E-01  0.0000E+00  0.5247E-01  0.2091E-07  0.2091E-07  0.4583E-05  0.2803E-43
REACH   21        0    12  0.1644E+04  0.2289E+00  0.2302E+00  0.0000E+00  0.2289E+00  0.6114E-07  0.0000E+00  0.0000E+00  0.2943E-43
REACH   22        0    12  0.6718E+03  0.6227E-01  0.6269E-01  0.0000E+00  0.6227E-01  0.1654E-07  0.1654E-07  0.3054E-05  0.3083E-43
REACH   23        0    12  0.3564E+03  0.9266E-01  0.9296E-01  0.0000E+00  0.9266E-01  0.1985E-07  0.1985E-07  0.2471E-05  0.3223E-43
REACH    1        0    13  0.9887E+04  0.2021E+01  0.2029E+01  0.0000E+00  0.2021E+01  0.5298E-07  0.0000E+00  0.0000E+00  0.1401E-44
REACH    2        0    13  0.3782E+03  0.5145E-01  0.5156E-01  0.0000E+00  0.5145E-01  0.1451E-07  0.1451E-07  0.3257E-05  0.2803E-44
REACH    3        0    13  0.1486E+04  0.1861E+00  0.1865E+00  0.0000E+00  0.1861E+00  0.1204E-07  0.1204E-07  0.7473E-06  0.4204E-44
REACH    4        0    13  0.9456E+04  0.2010E+01  0.2020E+01  0.0000E+00  0.2010E+01  0.1499E-07  0.0000E+00  0.0000E+00  0.5605E-44
REACH    5        0    13  0.2643E+03  0.4274E-01  0.4284E-01  0.0000E+00  0.4274E-01  0.3398E-07  0.3398E-07  0.9179E-05  0.7006E-44
REACH    6        0    13  0.7374E+03  0.1219E+00  0.1223E+00  0.0000E+00  0.1219E+00  0.7296E-07  0.0000E+00  0.0000E+00  0.8408E-44
REACH    7        0    13  0.3091E+03  0.1366E-02  0.1310E-02  0.0000E+00  0.1366E-02  0.3498E-07  0.3498E-07  0.3092E-03  0.9809E-44
REACH    8        0    13  0.4145E+03  0.7877E-01  0.7897E-01  0.0000E+00  0.7877E-01  0.2999E-07  0.2999E-07  0.4395E-05  0.1121E-43
REACH    9        0    13  0.2583E+04  0.4656E+00  0.4664E+00  0.0000E+00  0.4656E+00  0.4102E-07  0.0000E+00  0.0000E+00  0.1261E-43
REACH   10        0    13  0.1039E+04  0.2664E+00  0.2672E+00  0.0000E+00  0.2664E+00  0.1258E-07  0.1258E-07  0.5450E-06  0.1401E-43
REACH   11        0    13  0.4033E+04  0.8371E+00  0.8397E+00  0.0000E+00  0.8371E+00  0.3241E-07  0.0000E+00  0.0000E+00  0.1541E-43
REACH   12        0    13  0.4536E+04  0.1064E+01  0.1068E+01  0.0000E+00  0.1064E+01  0.4297E-07  0.0000E+00  0.0000E+00  0.1682E-43
REACH   13        0    13  0.3339E+03  0.1704E+00  0.1709E+00  0.0000E+00  0.1704E+00  0.1697E-07  0.1697E-07  0.1149E-05  0.1822E-43
REACH   14        0    13  0.4614E+04  0.1085E+01  0.1089E+01  0.0000E+00  0.1085E+01  0.1895E-07  0.0000E+00  0.0000E+00  0.1962E-43
REACH   15        0    13  0.8564E+04  0.1881E+01  0.1887E+01  0.0000E+00  0.1881E+01  0.2391E-07  0.0000E+00  0.0000E+00  0.2102E-43
REACH   16        0    13  0.4974E+04  0.1208E+01  0.1213E+01  0.0000E+00  0.1208E+01  0.4295E-07  0.0000E+00  0.0000E+00  0.2242E-43
REACH   17        0    13  0.2471E+04  0.3586E+00  0.3608E+00  0.0000E+00  0.3586E+00  0.4100E-07  0.0000E+00  0.0000E+00  0.2382E-43
REACH   18        0    13  0.2198E+03  0.9011E-01  0.9047E-01  0.0000E+00  0.9011E-01  0.2598E-07  0.2598E-07  0.3323E-05  0.2522E-43
REACH   19        0    13  0.2425E+04  0.3503E+00  0.3524E+00  0.0000E+00  0.3503E+00  0.7089E-07  0.0000E+00  0.0000E+00  0.2662E-43
REACH   20        0    13  0.3435E+03  0.5202E-01  0.5229E-01  0.0000E+00  0.5202E-01  0.2091E-07  0.2091E-07  0.4628E-05  0.2803E-43
REACH   21        0    13  0.1644E+04  0.2268E+00  0.2277E+00  0.0000E+00  0.2268E+00  0.6114E-07  0.0000E+00  0.0000E+00  0.2943E-43
REACH   22        0    13  0.6718E+03  0.6158E-01  0.6179E-01  0.0000E+00  0.6158E-01  0.1654E-07  0.1654E-07  0.3099E-05  0.3083E-43
REACH   23        0    13  0.3564E+03  0.9223E-01  0.9244E-01  0.0000E+00  0.9223E-01  0.1985E-07  0.1985E-07  0.2485E-05  0.3223E-43
REACH    1        0    14  0.9887E+04  0.2009E+01  0.2016E+01  0.0000E+00  0.2009E+01  0.5298E-07  0.0000E+00  0.0000E+00  0.1401E-44
REACH    2        0    14  0.3782E+03  0.5123E-01  0.5136E-01  0.0000E+00  0.5123E-01  0.1451E-07  0.1451E-07  0.3270E-05  0.2803E-44
REACH    3        0    14  0.1486E+04  0.1853E+00  0.1857E+00  0.0000E+00  0.1853E+00  0.1204E-07  0.1204E-07  0.7505E-06  0.4204E-44
REACH    4        0    14  0.9456E+04  0.1998E+01  0.2008E+01  0.0000E+00  0.1998E+01  0.1499E-07  0.0000E+00  0.0000E+00  0.5605E-44
REACH    5        0    14  0.2643E+03  0.4253E-01  0.4265E-01  0.0000E+00  0.4253E-01  0.3398E-07  0.3398E-07  0.9220E-05  0.7006E-44
REACH    6        0    14  0.7374E+03  0.1213E+00  0.1217E+00  0.0000E+00  0.1213E+00  0.7296E-07  0.0000E+00  0.0000E+00  0.8408E-44
REACH    7        0    14  0.3091E+03  0.1328E-02  0.1307E-02  0.0000E+00  0.1328E-02  0.3498E-07  0.3498E-07  0.3097E-03  0.9809E-44
REACH    8        0    14  0.4145E+03  0.7837E-01  0.7860E-01  0.0000E+00  0.7837E-01  0.2999E-07  0.2999E-07  0.4416E-05  0.1121E-43
REACH    9        0    14  0.2583E+04  0.4634E+00  0.4644E+00  0.0000E+00  0.4634E+00  0.4102E-07  0.0000E+00  0.0000E+00  0.1261E-43
REACH   10        0    14  0.1039E+04  0.2648E+00  0.2657E+00  0.0000E+00  0.2648E+00  0.1258E-07  0.1258E-07  0.5481E-06  0.1401E-43
REACH   11        0    14  0.4033E+04  0.8331E+00  0.8357E+00  0.0000E+00  0.8331E+00  0.3241E-07  0.0000E+00  0.0000E+00  0.1541E-43
REACH   12        0    14  0.4536E+04  0.1059E+01  0.1063E+01  0.0000E+00  0.1059E+01  0.4297E-07  0.0000E+00  0.0000E+00  0.1682E-43
REACH   13        0    14  0.3339E+03  0.1697E+00  0.1702E+00  0.0000E+00  0.1697E+00  0.1697E-07  0.1697E-07  0.1154E-05  0.1822E-43
REACH   14        0    14  0.4614E+04  0.1079E+01  0.1083E+01  0.0000E+00  0.1079E+01  0.1895E-07  0.0000E+00  0.0000E+00  0.1962E-43
REACH   15        0    14  0.8564E+04  0.1870E+01  0.1876E+01  0.0000E+00  0.1870E+01  0.2391E-07  0.0000E+00  0.0000E+00  0.2102E-43
REACH   16        0    14  0.4974E+04  0.1202E+01  0.1206E+01  0.0000E+00  0.1202E+01  0.4295E-07  0.0000E+00  0.0000E+00  0.2242E-43
REACH   17        0    14  0.2471E+04  0.3559E+00  0.3580E+00  0.0000E+00  0.3559E+00  0.4100E-07  0.0000E+00  0.0000E+00  0.2382E-43
REACH   18        0    14  0.2198E+03  0.8962E-01  0.8998E-01  0.0000E+00  0.8962E-01  0.2598E-07  0.2598E-07  0.3342E-05  0.2522E-43
REACH   19        0    14  0.2425E+04  0.3478E+00  0.3497E+00  0.0000E+00  0.3478E+00  0.7089E-07  0.0000E+00  0.0000E+00  0.2662E-43
REACH   20        0    14  0.3435E+03  0.5159E-01  0.5188E-01  0.0000E+00  0.5159E-01  0.2091E-07  0.2091E-07  0.4664E-05  0.2803E-43
REACH   21        0    14  0.1644E+04  0.2251E+00  0.2262E+00  0.0000E+00  0.2251E+00  0.6114E-07  0.0000E+00  0.0000E+00  0.2943E-43
REACH   22        0    14  0.6718E+03  0.6092E-01  0.6123E-01  0.0000E+00  0.6092E-01  0.1654E-07  0.1654E-07  0.3127E-05  0.3083E-43
REACH   23        0    14  0.3564E+03  0.9180E-01  0.9205E-01  0.0000E+00  0.9180E-01  0.1985E-07  0.1985E-07  0.2495E-05  0.3223E-43
REACH    1        0    15  0.9887E+04  0.1997E+01  0.2004E+01  0.0000E+00  0.1997E+01  0.5298E-07  0.0000E+00  0.0000E+00  0.1401E-44
REACH    2        0    15  0.3782E+03  0.5101E-01  0.5116E-01  0.0000E+00  0.5101E-01  0.1451E-07  0.1451E-07  0.3283E-05  0.2803E-44
REACH    3        0    15  0.1486E+04  0.1845E+00  0.1849E+00  0.0000E+00  0.1845E+00  0.1204E-07  0.1204E-07  0.7538E-06  0.4204E-44
REACH    4        0    15  0.9456E+04  0.1988E+01  0.1996E+01  0.0000E+00  0.1988E+01  0.1499E-07  0.0000E+00  0.0000E+00  0.5605E-44
REACH    5        0    15  0.2643E+03  0.4233E-01  0.4247E-01  0.0000E+00  0.4233E-01  0.3398E-07  0.3398E-07  0.9260E-05  0.7006E-44
REACH    6        0    15  0.7374E+03  0.1208E+00  0.1212E+00  0.0000E+00  0.1208E+00  0.7296E-07  0.0000E+00  0.0000E+00  0.8408E-44
REACH    7        0    15  0.3091E+03  0.1292E-02  0.1276E-02  0.0000E+00  0.1292E-02  0.3498E-07  0.3498E-07  0.3173E-03  0.9809E-44
REACH    8        0    15  0.4145E+03  0.7798E-01  0.7824E-01  0.0000E+00  0.7798E-01  0.2999E-07  0.2999E-07  0.4436E-05  0.1121E-43
REACH    9        0    15  0.2583E+04  0.4612E+00  0.4625E+00  0.0000E+00  0.4612E+00  0.4102E-07  0.0000E+00  0.0000E+00  0.1261E-43
REACH   10        0    15  0.1039E+04  0.2632E+00  0.2642E+00  0.0000E+00  0.2632E+00  0.1258E-07  0.1258E-07  0.5512E-06  0.1401E-43
REACH   11        0    15  0.4033E+04  0.8292E+00  0.8319E+00  0.0000E+00  0.8292E+00  0.3241E-07  0.0000E+00  0.0000E+00  0.1541E-43
REACH   12        0    15  0.4536E+04  0.1055E+01  0.1058E+01  0.0000E+00  0.1055E+01  0.4297E-07  0.0000E+00  0.0000E+00  0.1682E-43
REACH   13        0    15  0.3339E+03  0.1690E+00  0.1695E+00  0.0000E+00  0.1690E+00  0.1697E-07  0.1697E-07  0.1159E-05  0.1822E-43
REACH   14        0    15  0.4614E+04  0.1074E+01  0.1078E+01  0.0000E+00  0.1074E+01  0.1895E-07  0.0000E+00  0.0000E+00  0.1962E-43
REACH   15        0    15  0.8564E+04  0.1860E+01  0.1866E+01  0.0000E+00  0.1860E+01  0.2391E-07  0.0000E+00  0.0000E+00  0.2102E-43
REACH   16        0    15  0.4974E+04  0.1196E+01  0.1200E+01  0.0000E+00  0.1196E+01  0.4295E-07  0.0000E+00  0.0000E+00  0.2242E-43
REACH   17        0    15  0.2471E+04  0.3530E+00  0.3551E+00  0.0000E+00  0.3530E+00  0.4100E-07  0.0000E+00  0.0000E+00  0.2382E-43
REACH   18        0    15  0.2198E+03  0.8915E-01  0.8950E-01  0.0000E+00  0.8915E-01  0.2598E-07  0.2598E-07  0.3360E-05  0.2522E-43
REACH   19        0    15  0.2425E+04  0.3450E+00  0.3469E+00  0.0000E+00  0.3450E+00  0.7089E-07  0.0000E+00  0.0000E+00  0.2662E-43
REACH   20        0    15  0.3435E+03  0.5117E-01  0.5143E-01  0.0000E+00  0.5117E-01  0.2091E-07  0.2091E-07  0.4705E-05  0.2803E-43
REACH   21        0    15  0.1644E+04  0.2233E+00  0.2243E+00  0.0000E+00  0.2233E+00  0.6114E-07  0.0000E+00  0.0000E+00  0.2943E-43
REACH   22        0    15  0.6718E+03  0.6026E-01  0.6053E-01  0.0000E+00  0.6026E-01  0.1654E-07  0.1654E-07  0.3163E-05  0.3083E-43
REACH   23        0    15  0.3564E+03  0.9137E-01  0.9161E-01  0.0000E+00  0.9137E-01  0.1985E-07  0.1985E-07  0.2508E-05  0.3223E-43
REACH    1        0    16  0.9887E+04  0.1986E+01  0.1993E+01  0.0000E+00  0.1986E+01  0.5298E-07  0.0000E+00  0.0000E+00  0.1401E-44
REACH    2        0    16  0.3782E+03  0.5079E-01  0.5091E-01  0.0000E+00  0.5079E-01  0.1451E-07  0.1451E-07  0.3298E-05  0.2803E-44
REACH    3        0    16  0.1486E+04  0.1837E+00  0.1841E+00  0.0000E+00  0.1837E+00  0.1204E-07  0.1204E-07  0.7570E-06  0.4204E-44
REACH    4        0    16  0.9456E+04  0.1977E+01  0.1985E+01  0.0000E+00  0.1977E+01  0.1499E-07  0.0000E+00  0.0000E+00  0.5605E-44
REACH    5        0    16  0.2643E+03  0.4214E-01  0.4224E-01  0.0000E+00  0.4214E-01  0.3398E-07  0.3398E-07  0.9309E-05  0.7006E-44
REACH    6        0    16  0.7374E+03  0.1201E+00  0.1205E+00  0.0000E+00  0.1201E+00  0.7296E-07  0.0000E+00  0.0000E+00  0.8408E-44
REACH    7        0    16  0.3091E+03  0.1258E-02  0.1239E-02  0.0000E+00  0.1258E-02  0.3498E-07  0.3498E-07  0.3267E-03  0.9809E-44
REACH    8        0    16  0.4145E+03  0.7760E-01  0.7779E-01  0.0000E+00  0.7760E-01  0.2999E-07  0.2999E-07  0.4461E-05  0.1121E-43
REACH    9        0    16  0.2583E+04  0.4590E+00  0.4599E+00  0.0000E+00  0.4590E+00  0.4102E-07  0.0000E+00  0.0000E+00  0.1261E-43
REACH   10        0    16  0.1039E+04  0.2616E+00  0.2623E+00  0.0000E+00  0.2616E+00  0.1258E-07  0.1258E-07  0.5551E-06  0.1401E-43
REACH   11        0    16  0.4033E+04  0.8242E+00  0.8269E+00  0.0000E+00  0.8242E+00  0.3241E-07  0.0000E+00  0.0000E+00  0.1541E-43
REACH   12        0    16  0.4536E+04  0.1049E+01  0.1053E+01  0.0000E+00  0.1049E+01  0.4297E-07  0.0000E+00  0.0000E+00  0.1682E-43
REACH   13        0    16  0.3339E+03  0.1683E+00  0.1688E+00  0.0000E+00  0.1683E+00  0.1697E-07  0.1697E-07  0.1164E-05  0.1822E-43
REACH   14        0    16  0.4614E+04  0.1069E+01  0.1073E+01  0.0000E+00  0.1069E+01  0.1895E-07  0.0000E+00  0.0000E+00  0.1962E-43
REACH   15        0    16  0.8564E+04  0.1849E+01  0.1856E+01  0.0000E+00  0.1849E+01  0.2391E-07  0.0000E+00  0.0000E+00  0.2102E-43
REACH   16        0    16  0.4974E+04  0.1190E+01  0.1194E+01  0.0000E+00  0.1190E+01  0.4295E-07  0.0000E+00  0.0000E+00  0.2242E-43
REACH   17        0    16  0.2471E+04  0.3504E+00  0.3524E+00  0.0000E+00  0.3504E+00  0.4100E-07  0.0000E+00  0.0000E+00  0.2382E-43
REACH   18        0    16  0.2198E+03  0.8869E-01  0.8903E-01  0.0000E+00  0.8869E-01  0.2598E-07  0.2598E-07  0.3377E-05  0.2522E-43
REACH   19        0    16  0.2425E+04  0.3425E+00  0.3443E+00  0.0000E+00  0.3425E+00  0.7089E-07  0.0000E+00  0.0000E+00  0.2662E-43
REACH   20        0    16  0.3435E+03  0.5076E-01  0.5103E-01  0.0000E+00  0.5076E-01  0.2091E-07  0.2091E-07  0.4742E-05  0.2803E-43
REACH   21        0    16  0.1644E+04  0.2216E+00  0.2226E+00  0.0000E+00  0.2216E+00  0.6114E-07  0.0000E+00  0.0000E+00  0.2943E-43
REACH   22        0    16  0.6718E+03  0.5962E-01  0.5991E-01  0.0000E+00  0.5962E-01  0.1654E-07  0.1654E-07  0.3196E-05  0.3083E-43
REACH   23        0    16  0.3564E+03  0.9096E-01  0.9120E-01  0.0000E+00  0.9096E-01  0.1985E-07  0.1985E-07  0.2519E-05  0.3223E-43
REACH    1        0    17  0.9887E+04  0.1975E+01  0.1980E+01  0.0000E+00  0.1975E+01  0.5298E-07  0.0000E+00  0.0000E+00  0.1401E-44
REACH    2        0    17  0.3782E+03  0.5058E-01  0.5069E-01  0.0000E+00  0.5058E-01  0.1451E-07  0.1451E-07  0.3313E-05  0.2803E-44
REACH    3        0    17  0.1486E+04  0.1829E+00  0.1834E+00  0.0000E+00  0.1829E+00  0.1204E-07  0.1204E-07  0.7603E-06  0.4204E-44
REACH    4        0    17  0.9456E+04  0.1967E+01  0.1974E+01  0.0000E+00  0.1967E+01  0.1499E-07  0.0000E+00  0.0000E+00  0.5605E-44
REACH    5        0    17  0.2643E+03  0.4195E-01  0.4204E-01  0.0000E+00  0.4195E-01  0.3398E-07  0.3398E-07  0.9353E-05  0.7006E-44
REACH    6        0    17  0.7374E+03  0.1195E+00  0.1199E+00  0.0000E+00  0.1195E+00  0.7296E-07  0.0000E+00  0.0000E+00  0.8408E-44
REACH    7        0    17  0.3091E+03  0.1226E-02  0.1226E-02  0.0000E+00  0.1226E-02  0.3498E-07  0.3498E-07  0.3303E-03  0.9809E-44
REACH    8        0    17  0.4145E+03  0.7723E-01  0.7740E-01  0.0000E+00  0.7723E-01  0.2999E-07  0.2999E-07  0.4484E-05  0.1121E-43
REACH    9        0    17  0.2583E+04  0.4569E+00  0.4576E+00  0.0000E+00  0.4569E+00  0.4102E-07  0.0000E+00  0.0000E+00  0.1261E-43
REACH   10        0    17  0.1039E+04  0.2600E+00  0.2607E+00  0.0000E+00  0.2600E+00  0.1258E-07  0.1258E-07  0.5586E-06  0.1401E-43
REACH   11        0    17  0.4033E+04  0.8198E+00  0.8223E+00  0.0000E+00  0.8198E+00  0.3241E-07  0.0000E+00  0.0000E+00  0.1541E-43
REACH   12        0    17  0.4536E+04  0.1043E+01  0.1047E+01  0.0000E+00  0.1043E+01  0.4297E-07  0.0000E+00  0.0000E+00  0.1682E-43
REACH   13        0    17  0.3339E+03  0.1677E+00  0.1681E+00  0.0000E+00  0.1677E+00  0.1697E-07  0.1697E-07  0.1168E-05  0.1822E-43
REACH   14        0    17  0.4614E+04  0.1063E+01  0.1067E+01  0.0000E+00  0.1063E+01  0.1895E-07  0.0000E+00  0.0000E+00  0.1962E-43
REACH   15        0    17  0.8564E+04  0.1840E+01  0.1846E+01  0.0000E+00  0.1840E+01  0.2391E-07  0.0000E+00  0.0000E+00  0.2102E-43
REACH   16        0    17  0.4974E+04  0.1184E+01  0.1188E+01  0.0000E+00  0.1184E+01  0.4295E-07  0.0000E+00  0.0000E+00  0.2242E-43
REACH   17        0    17  0.2471E+04  0.3480E+00  0.3499E+00  0.0000E+00  0.3480E+00  0.4100E-07  0.0000E+00  0.0000E+00  0.2382E-43
REACH   18        0    17  0.2198E+03  0.8825E-01  0.8858E-01  0.0000E+00  0.8825E-01  0.2598E-07  0.2598E-07  0.3394E-05  0.2522E-43
REACH   19        0    17  0.2425E+04  0.3402E+00  0.3419E+00  0.0000E+00  0.3402E+00  0.7089E-07  0.0000E+00  0.0000E+00  0.2662E-43
REACH   20        0    17  0.3435E+03  0.5037E-01  0.5064E-01  0.0000E+00  0.5037E-01  0.2091E-07  0.2091E-07  0.4778E-05  0.2803E-43
REACH   21        0    17  0.1644E+04  0.2200E+00  0.2211E+00  0.0000E+00  0.2200E+00  0.6114E-07  0.0000E+00  0.0000E+00  0.2943E-43
REACH   22        0    17  0.6718E+03  0.5900E-01  0.5935E-01  0.0000E+00  0.5900E-01  0.1654E-07  0.1654E-07  0.3226E-05  0.3083E-43
REACH   23        0    17  0.3564E+03  0.9055E-01  0.9081E-01  0.0000E+00  0.9055E-01  0.1985E-07  0.1985E-07  0.2529E-05  0.3223E-43
REACH    1        0    18  0.9887E+04  0.1963E+01  0.1968E+01  0.0000E+00  0.1963E+01  0.5298E-07  0.0000E+00  0.0000E+00  0.1401E-44
REACH    2        0    18  0.3782E+03  0.5036E-01  0.5046E-01  0.0000E+00  0.5036E-01  0.1451E-07  0.1451E-07  0.3328E-05  0.2803E-44
REACH    3        0    18  0.1486E+04  0.1821E+00  0.1826E+00  0.0000E+00  0.1821E+00  0.1204E-07  0.1204E-07  0.7636E-06  0.4204E-44
REACH    4        0    18  0.9456E+04  0.1954E+01  0.1961E+01  0.0000E+00  0.1954E+01  0.1499E-07  0.0000E+00  0.0000E+00  0.5605E-44
REACH    5        0    18  0.2643E+03  0.4176E-01  0.4184E-01  0.0000E+00  0.4176E-01  0.3398E-07  0.3398E-07  0.9398E-05  0.7006E-44
REACH    6        0    18  0.7374E+03  0.1189E+00  0.1193E+00  0.0000E+00  0.1189E+00  0.7296E-07  0.0000E+00  0.0000E+00  0.8408E-44
REACH    7        0    18  0.3091E+03  0.1195E-02  0.1122E-02  0.0000E+00  0.1195E-02  0.3498E-07  0.3498E-07  0.3608E-03  0.9809E-44
REACH    8        0    18  0.4145E+03  0.7686E-01  0.7700E-01  0.0000E+00  0.7686E-01  0.2999E-07  0.2999E-07  0.4507E-05  0.1121E-43
REACH    9        0    18  0.2583E+04  0.4548E+00  0.4553E+00  0.0000E+00  0.4548E+00  0.4102E-07  0.0000E+00  0.0000E+00  0.1261E-43
REACH   10        0    18  0.1039E+04  0.2585E+00  0.2590E+00  0.0000E+00  0.2585E+00  0.1258E-07  0.1258E-07  0.5622E-06  0.1401E-43
REACH   11        0    18  0.4033E+04  0.8152E+00  0.8176E+00  0.0000E+00  0.8152E+00  0.3241E-07  0.0000E+00  0.0000E+00  0.1541E-43
REACH   12        0    18  0.4536E+04  0.1037E+01  0.1041E+01  0.0000E+00  0.1037E+01  0.4297E-07  0.0000E+00  0.0000E+00  0.1682E-43
REACH   13        0    18  0.3339E+03  0.1670E+00  0.1674E+00  0.0000E+00  0.1670E+00  0.1697E-07  0.1697E-07  0.1173E-05  0.1822E-43
REACH   14        0    18  0.4614E+04  0.1057E+01  0.1061E+01  0.0000E+00  0.1057E+01  0.1895E-07  0.0000E+00  0.0000E+00  0.1962E-43
REACH   15        0    18  0.8564E+04  0.1828E+01  0.1834E+01  0.0000E+00  0.1828E+01  0.2391E-07  0.0000E+00  0.0000E+00  0.2102E-43
REACH   16        0    18  0.4974E+04  0.1177E+01  0.1181E+01  0.0000E+00  0.1177E+01  0.4295E-07  0.0000E+00  0.0000E+00  0.2242E-43
REACH   17        0    18  0.2471E+04  0.3449E+00  0.3469E+00  0.0000E+00  0.3449E+00  0.4100E-07  0.0000E+00  0.0000E+00  0.2382E-43
REACH   18        0    18  0.2198E+03  0.8782E-01  0.8812E-01  0.0000E+00  0.8782E-01  0.2598E-07  0.2598E-07  0.3412E-05  0.2522E-43
REACH   19        0    18  0.2425E+04  0.3370E+00  0.3389E+00  0.0000E+00  0.3370E+00  0.7089E-07  0.0000E+00  0.0000E+00  0.2662E-43
REACH   20        0    18  0.3435E+03  0.4998E-01  0.5019E-01  0.0000E+00  0.4998E-01  0.2091E-07  0.2091E-07  0.4821E-05  0.2803E-43
REACH   21        0    18  0.1644E+04  0.2181E+00  0.2188E+00  0.0000E+00  0.2181E+00  0.6114E-07  0.0000E+00  0.0000E+00  0.2943E-43
REACH   22        0    18  0.6718E+03  0.5839E-01  0.5851E-01  0.0000E+00  0.5839E-01  0.1654E-07  0.1654E-07  0.3272E-05  0.3083E-43
REACH   23        0    18  0.3564E+03  0.9014E-01  0.9032E-01  0.0000E+00  0.9014E-01  0.1985E-07  0.1985E-07  0.2543E-05  0.3223E-43
REACH    1        0    19  0.9887E+04  0.1952E+01  0.1957E+01  0.0000E+00  0.1952E+01  0.5298E-07  0.0000E+00  0.0000E+00  0.1401E-44
REACH    2        0    19  0.3782E+03  0.5015E-01  0.5023E-01  0.0000E+00  0.5015E-01  0.1451E-07  0.1451E-07  0.3343E-05  0.2803E-44
REACH    3        0    19  0.1486E+04  0.1814E+00  0.1817E+00  0.0000E+00  0.1814E+00  0.1204E-07  0.1204E-07  0.7671E-06  0.4204E-44
REACH    4        0    19  0.9456E+04  0.1944E+01  0.1951E+01  0.0000E+00  0.1944E+01  0.1499E-07  0.0000E+00  0.0000E+00  0.5605E-44
REACH    5        0    19  0.2643E+03  0.4158E-01  0.4164E-01  0.0000E+00  0.4158E-01  0.3398E-07  0.3398E-07  0.9443E-05  0.7006E-44
REACH    6        0    19  0.7374E+03  0.1183E+00  0.1186E+00  0.0000E+00  0.1183E+00  0.7296E-07  0.0000E+00  0.0000E+00  0.8408E-44
REACH    7        0    19  0.3091E+03  0.1166E-02  0.1123E-02  0.0000E+00  0.1166E-02  0.3498E-07  0.3498E-07  0.3604E-03  0.9809E-44
REACH    8        0    19  0.4145E+03  0.7651E-01  0.7661E-01  0.0000E+00  0.7651E-01  0.2999E-07  0.2999E-07  0.4531E-05  0.1121E-43
REACH    9        0    19  0.2583E+04  0.4526E+00  0.4529E+00  0.0000E+00  0.4526E+00  0.4102E-07  0.0000E+00  0.0000E+00  0.1261E-43
REACH   10        0    19  0.1039E+04  0.2570E+00  0.2574E+00  0.0000E+00  0.2570E+00  0.1258E-07  0.1258E-07  0.5658E-06  0.1401E-43
REACH   11        0    19  0.4033E+04  0.8107E+00  0.8129E+00  0.0000E+00  0.8107E+00  0.3241E-07  0.0000E+00  0.0000E+00  0.1541E-43
REACH   12        0    19  0.4536E+04  0.1032E+01  0.1036E+01  0.0000E+00  0.1032E+01  0.4297E-07  0.0000E+00  0.0000E+00  0.1682E-43
REACH   13        0    19  0.3339E+03  0.1664E+00  0.1668E+00  0.0000E+00  0.1664E+00  0.1697E-07  0.1697E-07  0.1178E-05  0.1822E-43
REACH   14        0    19  0.4614E+04  0.1051E+01  0.1055E+01  0.0000E+00  0.1051E+01  0.1895E-07  0.0000E+00  0.0000E+00  0.1962E-43
REACH   15        0    19  0.8564E+04  0.1819E+01  0.1825E+01  0.0000E+00  0.1819E+01  0.2391E-07  0.0000E+00  0.0000E+00  0.2102E-43
REACH   16        0    19  0.4974E+04  0.1171E+01  0.1175E+01  0.0000E+00  0.1171E+01  0.4295E-07  0.0000E+00  0.0000E+00  0.2242E-43
REACH   17        0    19  0.2471E+04  0.3425E+00  0.3444E+00  0.0000E+00  0.3425E+00  0.4100E-07  0.0000E+00  0.0000E+00  0.2382E-43
REACH   18        0    19  0.2198E+03  0.8739E-01  0.8770E-01  0.0000E+00  0.8739E-01  0.2598E-07  0.2598E-07  0.3429E-05  0.2522E-43
REACH   19        0    19  0.2425E+04  0.3348E+00  0.3365E+00  0.0000E+00  0.3348E+00  0.7089E-07  0.0000E+00  0.0000E+00  0.2662E-43
REACH   20        0    19  0.3435E+03  0.4961E-01  0.4984E-01  0.0000E+00  0.4961E-01  0.2091E-07  0.2091E-07  0.4855E-05  0.2803E-43
REACH   21        0    19  0.1644E+04  0.2166E+00  0.2174E+00  0.0000E+00  0.2166E+00  0.6114E-07  0.0000E+00  0.0000E+00  0.2943E-43
REACH   22        0    19  0.6718E+03  0.5779E-01  0.5800E-01  0.0000E+00  0.5779E-01  0.1654E-07  0.1654E-07  0.3301E-05  0.3083E-43
REACH   23        0    19  0.3564E+03  0.8974E-01  0.8995E-01  0.0000E+00  0.8974E-01  0.1985E-07  0.1985E-07  0.2554E-05  0.3223E-43
REACH    1        0    20  0.9887E+04  0.1942E+01  0.1947E+01  0.0000E+00  0.1942E+01  0.5298E-07  0.0000E+00  0.0000E+00  0.1401E-44
REACH    2        0    20  0.3782E+03  0.4993E-01  0.5002E-01  0.0000E+00  0.4993E-01  0.1451E-07  0.1451E-07  0.3357E-05  0.2803E-44
REACH    3        0    20  0.1486E+04  0.1806E+00  0.1810E+00  0.0000E+00  0.1806E+00  0.1204E-07  0.1204E-07  0.7703E-06  0.4204E-44
REACH    4        0    20  0.9456E+04  0.1934E+01  0.1941E+01  0.0000E+00  0.1934E+01  0.1499E-07  0.0000E+00  0.0000E+00  0.5605E-44
REACH    5        0    20  0.2643E+03  0.4140E-01  0.4147E-01  0.0000E+00  0.4140E-01  0.3398E-07  0.3398E-07  0.9483E-05  0.7006E-44
REACH    6        0    20  0.7374E+03  0.1178E+00  0.1181E+00  0.0000E+00  0.1178E+00  0.7296E-07  0.0000E+00  0.0000E+00  0.8408E-44
REACH    7        0    20  0.3091E+03  0.1139E-02  0.1126E-02  0.0000E+00  0.1139E-02  0.3498E-07  0.3498E-07  0.3595E-03  0.9809E-44
REACH    8        0    20  0.4145E+03  0.7616E-01  0.7626E-01  0.0000E+00  0.7616E-01  0.2999E-07  0.2999E-07  0.4551E-05  0.1121E-43
REACH    9        0    20  0.2583E+04  0.4505E+00  0.4509E+00  0.0000E+00  0.4505E+00  0.4102E-07  0.0000E+00  0.0000E+00  0.1261E-43
REACH   10        0    20  0.1039E+04  0.2555E+00  0.2559E+00  0.0000E+00  0.2555E+00  0.1258E-07  0.1258E-07  0.5690E-06  0.1401E-43
REACH   11        0    20  0.4033E+04  0.8068E+00  0.8088E+00  0.0000E+00  0.8068E+00  0.3241E-07  0.0000E+00  0.0000E+00  0.1541E-43
REACH   12        0    20  0.4536E+04  0.1027E+01  0.1030E+01  0.0000E+00  0.1027E+01  0.4297E-07  0.0000E+00  0.0000E+00  0.1682E-43
REACH   13        0    20  0.3339E+03  0.1658E+00  0.1661E+00  0.0000E+00  0.1658E+00  0.1697E-07  0.1697E-07  0.1182E-05  0.1822E-43
REACH   14        0    20  0.4614E+04  0.1046E+01  0.1050E+01  0.0000E+00  0.1046E+01  0.1895E-07  0.0000E+00  0.0000E+00  0.1962E-43
REACH   15        0    20  0.8564E+04  0.1809E+01  0.1816E+01  0.0000E+00  0.1809E+01  0.2391E-07  0.0000E+00  0.0000E+00  0.2102E-43
REACH   16        0    20  0.4974E+04  0.1165E+01  0.1169E+01  0.0000E+00  0.1165E+01  0.4295E-07  0.0000E+00  0.0000E+00  0.2242E-43
REACH   17        0    20  0.2471E+04  0.3404E+00  0.3421E+00  0.0000E+00  0.3404E+00  0.4100E-07  0.0000E+00  0.0000E+00  0.2382E-43
REACH   18        0    20  0.2198E+03  0.8698E-01  0.8729E-01  0.0000E+00  0.8698E-01  0.2598E-07  0.2598E-07  0.3445E-05  0.2522E-43
REACH   19        0    20  0.2425E+04  0.3327E+00  0.3343E+00  0.0000E+00  0.3327E+00  0.7089E-07  0.0000E+00  0.0000E+00  0.2662E-43
REACH   20        0    20  0.3435E+03  0.4925E-01  0.4949E-01  0.0000E+00  0.4925E-01  0.2091E-07  0.2091E-07  0.4889E-05  0.2803E-43
REACH   21        0    20  0.1644E+04  0.2151E+00  0.2160E+00  0.0000E+00  0.2151E+00  0.6114E-07  0.0000E+00  0.0000E+00  0.2943E-43
REACH   22        0    20  0.6718E+03  0.5720E-01  0.5750E-01  0.0000E+00  0.5720E-01  0.1654E-07  0.1654E-07  0.3330E-05  0.3083E-43
REACH   23        0    20  0.3564E+03  0.8935E-01  0.8959E-01  0.0000E+00  0.8935E-01  0.1985E-07  0.1985E-07  0.2564E-05  0.3223E-43
REACH    1        0    21  0.9887E+04  0.1929E+01  0.1935E+01  0.0000E+00  0.1929E+01  0.5298E-07  0.0000E+00  0.0000E+00  0.1401E-44
REACH    2        0    21  0.3782E+03  0.4972E-01  0.4982E-01  0.0000E+00  0.4972E-01  0.1451E-07  0.1451E-07  0.3371E-05  0.2803E-44
REACH    3        0    21  0.1486E+04  0.1798E+00  0.1801E+00  0.0000E+00  0.1798E+00  0.1204E-07  0.1204E-07  0.7742E-06  0.4204E-44
REACH    4        0    21  0.9456E+04  0.1919E+01  0.1929E+01  0.0000E+00  0.1919E+01  0.1499E-07  0.0000E+00  0.0000E+00  0.5605E-44
REACH    5        0    21  0.2643E+03  0.4123E-01  0.4130E-01  0.0000E+00  0.4123E-01  0.3398E-07  0.3398E-07  0.9521E-05  0.7006E-44
REACH    6        0    21  0.7374E+03  0.1173E+00  0.1176E+00  0.0000E+00  0.1173E+00  0.7296E-07  0.0000E+00  0.0000E+00  0.8408E-44
REACH    7        0    21  0.3091E+03  0.1114E-02  0.9645E-03  0.0000E+00  0.1114E-02  0.3498E-07  0.3498E-07  0.4198E-03  0.9809E-44
REACH    8        0    21  0.4145E+03  0.7581E-01  0.7594E-01  0.0000E+00  0.7581E-01  0.2999E-07  0.2999E-07  0.4570E-05  0.1121E-43
REACH    9        0    21  0.2583E+04  0.4484E+00  0.4490E+00  0.0000E+00  0.4484E+00  0.4102E-07  0.0000E+00  0.0000E+00  0.1261E-43
REACH   10        0    21  0.1039E+04  0.2541E+00  0.2546E+00  0.0000E+00  0.2541E+00  0.1258E-07  0.1258E-07  0.5720E-06  0.1401E-43
REACH   11        0    21  0.4033E+04  0.8030E+00  0.8050E+00  0.0000E+00  0.8030E+00  0.3241E-07  0.0000E+00  0.0000E+00  0.1541E-43
REACH   12        0    21  0.4536E+04  0.1022E+01  0.1025E+01  0.0000E+00  0.1022E+01  0.4297E-07  0.0000E+00  0.0000E+00  0.1682E-43
REACH   13        0    21  0.3339E+03  0.1651E+00  0.1655E+00  0.0000E+00  0.1651E+00  0.1697E-07  0.1697E-07  0.1187E-05  0.1822E-43
REACH   14        0    21  0.4614E+04  0.1040E+01  0.1044E+01  0.0000E+00  0.1040E+01  0.1895E-07  0.0000E+00  0.0000E+00  0.1962E-43
REACH   15        0    21  0.8564E+04  0.1798E+01  0.1801E+01  0.0000E+00  0.1798E+01  0.2391E-07  0.0000E+00  0.0000E+00  0.2102E-43
REACH   16        0    21  0.4974E+04  0.1159E+01  0.1162E+01  0.0000E+00  0.1159E+01  0.4295E-07  0.0000E+00  0.0000E+00  0.2242E-43
REACH   17        0    21  0.2471E+04  0.3369E+00  0.3389E+00  0.0000E+00  0.3369E+00  0.4100E-07  0.0000E+00  0.0000E+00  0.2382E-43
REACH   18        0    21  0.2198E+03  0.8658E-01  0.8684E-01  0.0000E+00  0.8658E-01  0.2598E-07  0.2598E-07  0.3462E-05  0.2522E-43
REACH   19        0    21  0.2425E+04  0.3292E+00  0.3309E+00  0.0000E+00  0.3292E+00  0.7089E-07  0.0000E+00  0.0000E+00  0.2662E-43
REACH   20        0    21  0.3435E+03  0.4889E-01  0.4901E-01  0.0000E+00  0.4889E-01  0.2091E-07  0.2091E-07  0.4937E-05  0.2803E-43
REACH   21        0    21  0.1644E+04  0.2129E+00  0.2133E+00  0.0000E+00  0.2129E+00  0.6114E-07  0.0000E+00  0.0000E+00  0.2943E-43
REACH   22        0    21  0.6718E+03  0.5663E-01  0.5649E-01  0.0000E+00  0.5663E-01  0.1654E-07  0.1654E-07  0.3389E-05  0.3083E-43
REACH   23        0    21  0.3564E+03  0.8896E-01  0.8903E-01  0.0000E+00  0.8896E-01  0.1985E-07  0.1985E-07  0.2580E-05  0.3223E-43
REACH    1        0    22  0.9887E+04  0.1918E+01  0.1923E+01  0.0000E+00  0.1918E+01  0.5298E-07  0.0000E+00  0.0000E+00  0.1401E-44
REACH    2        0    22  0.3782E+03  0.4951E-01  0.4959E-01  0.0000E+00  0.4951E-01  0.1451E-07  0.1451E-07  0.3387E-05  0.2803E-44
REACH    3        0    22  0.1486E+04  0.1791E+00  0.1788E+00  0.0000E+00  0.1791E+00  0.1204E-07  0.1204E-07  0.7797E-06  0.4204E-44
REACH    4        0    22  0.9456E+04  0.1910E+01  0.1917E+01  0.0000E+00  0.1910E+01  0.1499E-07  0.0000E+00  0.0000E+00  0.5605E-44
REACH    5        0    22  0.2643E+03  0.4106E-01  0.4111E-01  0.0000E+00  0.4106E-01  0.3398E-07  0.3398E-07  0.9566E-05  0.7006E-44
REACH    6        0    22  0.7374E+03  0.1167E+00  0.1170E+00  0.0000E+00  0.1167E+00  0.7296E-07  0.0000E+00  0.0000E+00  0.8408E-44
REACH    7        0    22  0.3091E+03  0.1089E-02  0.9809E-03  0.0000E+00  0.1089E-02  0.3498E-07  0.3498E-07  0.4128E-03  0.9809E-44
REACH    8        0    22  0.4145E+03  0.7548E-01  0.7556E-01  0.0000E+00  0.7548E-01  0.2999E-07  0.2999E-07  0.4593E-05  0.1121E-43
REACH    9        0    22  0.2583E+04  0.4458E+00  0.4463E+00  0.0000E+00  0.4458E+00  0.4102E-07  0.0000E+00  0.0000E+00  0.1261E-43
REACH   10        0    22  0.1039E+04  0.2527E+00  0.2530E+00  0.0000E+00  0.2527E+00  0.1258E-07  0.1258E-07  0.5756E-06  0.1401E-43
REACH   11        0    22  0.4033E+04  0.7983E+00  0.8004E+00  0.0000E+00  0.7983E+00  0.3241E-07  0.0000E+00  0.0000E+00  0.1541E-43
REACH   12        0    22  0.4536E+04  0.1017E+01  0.1020E+01  0.0000E+00  0.1017E+01  0.4297E-07  0.0000E+00  0.0000E+00  0.1682E-43
REACH   13        0    22  0.3339E+03  0.1645E+00  0.1649E+00  0.0000E+00  0.1645E+00  0.1697E-07  0.1697E-07  0.1191E-05  0.1822E-43
REACH   14        0    22  0.4614E+04  0.1035E+01  0.1039E+01  0.0000E+00  0.1035E+01  0.1895E-07  0.0000E+00  0.0000E+00  0.1962E-43
REACH   15        0    22  0.8564E+04  0.1788E+01  0.1793E+01  0.0000E+00  0.1788E+01  0.2391E-07  0.0000E+00  0.0000E+00  0.2102E-43
REACH   16        0    22  0.4974E+04  0.1153E+01  0.1157E+01  0.0000E+00  0.1153E+01  0.4295E-07  0.0000E+00  0.0000E+00  0.2242E-43
REACH   17        0    22  0.2471E+04  0.3346E+00  0.3364E+00  0.0000E+00  0.3346E+00  0.4100E-07  0.0000E+00  0.0000E+00  0.2382E-43
REACH   18        0    22  0.2198E+03  0.8619E-01  0.8646E-01  0.0000E+00  0.8619E-01  0.2598E-07  0.2598E-07  0.3478E-05  0.2522E-43
REACH   19        0    22  0.2425E+04  0.3272E+00  0.3286E+00  0.0000E+00  0.3272E+00  0.7089E-07  0.0000E+00  0.0000E+00  0.2662E-43
REACH   20        0    22  0.3435E+03  0.4855E-01  0.4870E-01  0.0000E+00  0.4855E-01  0.2091E-07  0.2091E-07  0.4969E-05  0.2803E-43
REACH   21        0    22  0.1644E+04  0.2116E+00  0.2120E+00  0.0000E+00  0.2116E+00  0.6114E-07  0.0000E+00  0.0000E+00  0.2943E-43
REACH   22        0    22  0.6718E+03  0.5607E-01  0.5605E-01  0.0000E+00  0.5607E-01  0.1654E-07  0.1654E-07  0.3416E-05  0.3083E-43
REACH   23        0    22  0.3564E+03  0.8857E-01  0.8869E-01  0.0000E+00  0.8857E-01  0.1985E-07  0.1985E-07  0.2590E-05  0.3223E-43
REACH    1        0    23  0.9887E+04  0.1907E+01  0.1913E+01  0.0000E+00  0.1907E+01  0.5298E-07  0.0000E+00  0.0000E+00  0.1401E-44
REACH    2        0    23  0.3782E+03  0.4930E-01  0.4928E-01  0.0000E+00  0.4930E-01  0.1451E-07  0.1451E-07  0.3407E-05  0.2803E-44
REACH    3        0    23  0.1486E+04  0.1783E+00  0.1772E+00  0.0000E+00  0.1783E+00  0.1204E-07  0.1204E-07  0.7867E-06  0.4204E-44
REACH    4        0    23  0.9456E+04  0.1899E+01  0.1906E+01  0.0000E+00  0.1899E+01  0.1499E-07  0.0000E+00  0.0000E+00  0.5605E-44
REACH    5        0    23  0.2643E+03  0.4089E-01  0.4085E-01  0.0000E+00  0.4089E-01  0.3398E-07  0.3398E-07  0.9626E-05  0.7006E-44
REACH    6        0    23  0.7374E+03  0.1160E+00  0.1162E+00  0.0000E+00  0.1160E+00  0.7296E-07  0.0000E+00  0.0000E+00  0.8408E-44
REACH    7        0    23  0.3091E+03  0.1067E-02  0.9594E-03  0.0000E+00  0.1067E-02  0.3498E-07  0.3498E-07  0.4220E-03  0.9809E-44
REACH    8        0    23  0.4145E+03  0.7515E-01  0.7503E-01  0.0000E+00  0.7515E-01  0.2999E-07  0.2999E-07  0.4625E-05  0.1121E-43
REACH    9        0    23  0.2583E+04  0.4429E+00  0.4422E+00  0.0000E+00  0.4429E+00  0.4102E-07  0.0000E+00  0.0000E+00  0.1261E-43
REACH   10        0    23  0.1039E+04  0.2513E+00  0.2508E+00  0.0000E+00  0.2513E+00  0.1258E-07  0.1258E-07  0.5807E-06  0.1401E-43
REACH   11        0    23  0.4033E+04  0.7915E+00  0.7932E+00  0.0000E+00  0.7915E+00  0.3241E-07  0.0000E+00  0.0000E+00  0.1541E-43
REACH   12        0    23  0.4536E+04  0.1008E+01  0.1013E+01  0.0000E+00  0.1008E+01  0.4297E-07  0.0000E+00  0.0000E+00  0.1682E-43
REACH   13        0    23  0.3339E+03  0.1639E+00  0.1642E+00  0.0000E+00  0.1639E+00  0.1697E-07  0.1697E-07  0.1196E-05  0.1822E-43
REACH   14        0    23  0.4614E+04  0.1028E+01  0.1033E+01  0.0000E+00  0.1028E+01  0.1895E-07  0.0000E+00  0.0000E+00  0.1962E-43
REACH   15        0    23  0.8564E+04  0.1778E+01  0.1783E+01  0.0000E+00  0.1778E+01  0.2391E-07  0.0000E+00  0.0000E+00  0.2102E-43
REACH   16        0    23  0.4974E+04  0.1146E+01  0.1150E+01  0.0000E+00  0.1146E+01  0.4295E-07  0.0000E+00  0.0000E+00  0.2242E-43
REACH   17        0    23  0.2471E+04  0.3323E+00  0.3339E+00  0.0000E+00  0.3323E+00  0.4100E-07  0.0000E+00  0.0000E+00  0.2382E-43
REACH   18        0    23  0.2198E+03  0.8581E-01  0.8607E-01  0.0000E+00  0.8581E-01  0.2598E-07  0.2598E-07  0.3494E-05  0.2522E-43
REACH   19        0    23  0.2425E+04  0.3250E+00  0.3263E+00  0.0000E+00  0.3250E+00  0.7089E-07  0.0000E+00  0.0000E+00  0.2662E-43
REACH   20        0    23  0.3435E+03  0.4821E-01  0.4836E-01  0.0000E+00  0.4821E-01  0.2091E-07  0.2091E-07  0.5004E-05  0.2803E-43
REACH   21        0    23  0.1644E+04  0.2101E+00  0.2105E+00  0.0000E+00  0.2101E+00  0.6114E-07  0.0000E+00  0.0000E+00  0.2943E-43
REACH   22        0    23  0.6718E+03  0.5551E-01  0.5550E-01  0.0000E+00  0.5551E-01  0.1654E-07  0.1654E-07  0.3450E-05  0.3083E-43
REACH   23        0    23  0.3564E+03  0.8819E-01  0.8831E-01  0.0000E+00  0.8819E-01  0.1985E-07  0.1985E-07  0.2601E-05  0.3223E-43
REACH    1        0    24  0.9887E+04  0.1898E+01  0.1903E+01  0.0000E+00  0.1898E+01  0.5298E-07  0.0000E+00  0.0000E+00  0.1401E-44
REACH    2        0    24  0.3782E+03  0.4909E-01  0.4911E-01  0.0000E+00  0.4909E-01  0.1451E-07  0.1451E-07  0.3419E-05  0.2803E-44
REACH    3        0    24  0.1486E+04  0.1776E+00  0.1757E+00  0.0000E+00  0.1776E+00  0.1204E-07  0.1204E-07  0.7933E-06  0.4204E-44
REACH    4        0    24  0.9456E+04  0.1891E+01  0.1897E+01  0.0000E+00  0.1891E+01  0.1499E-07  0.0000E+00  0.0000E+00  0.5605E-44
REACH    5        0    24  0.2643E+03  0.4072E-01  0.4072E-01  0.0000E+00  0.4072E-01  0.3398E-07  0.3398E-07  0.9658E-05  0.7006E-44
REACH    6        0    24  0.7374E+03  0.1156E+00  0.1157E+00  0.0000E+00  0.1156E+00  0.7296E-07  0.0000E+00  0.0000E+00  0.8408E-44
REACH    7        0    24  0.3091E+03  0.1045E-02  0.9920E-03  0.0000E+00  0.1045E-02  0.3498E-07  0.3498E-07  0.4081E-03  0.9809E-44
REACH    8        0    24  0.4145E+03  0.7483E-01  0.7478E-01  0.0000E+00  0.7483E-01  0.2999E-07  0.2999E-07  0.4641E-05  0.1121E-43
REACH    9        0    24  0.2583E+04  0.4402E+00  0.4401E+00  0.0000E+00  0.4402E+00  0.4102E-07  0.0000E+00  0.0000E+00  0.1261E-43
REACH   10        0    24  0.1039E+04  0.2499E+00  0.2497E+00  0.0000E+00  0.2499E+00  0.1258E-07  0.1258E-07  0.5831E-06  0.1401E-43
REACH   11        0    24  0.4033E+04  0.7878E+00  0.7892E+00  0.0000E+00  0.7878E+00  0.3241E-07  0.0000E+00  0.0000E+00  0.1541E-43
REACH   12        0    24  0.4536E+04  0.1004E+01  0.1008E+01  0.0000E+00  0.1004E+01  0.4297E-07  0.0000E+00  0.0000E+00  0.1682E-43
REACH   13        0    24  0.3339E+03  0.1633E+00  0.1636E+00  0.0000E+00  0.1633E+00  0.1697E-07  0.1697E-07  0.1200E-05  0.1822E-43
REACH   14        0    24  0.4614E+04  0.1023E+01  0.1027E+01  0.0000E+00  0.1023E+01  0.1895E-07  0.0000E+00  0.0000E+00  0.1962E-43
REACH   15        0    24  0.8564E+04  0.1769E+01  0.1774E+01  0.0000E+00  0.1769E+01  0.2391E-07  0.0000E+00  0.0000E+00  0.2102E-43
REACH   16        0    24  0.4974E+04  0.1140E+01  0.1144E+01  0.0000E+00  0.1140E+01  0.4295E-07  0.0000E+00  0.0000E+00  0.2242E-43
REACH   17        0    24  0.2471E+04  0.3305E+00  0.3319E+00  0.0000E+00  0.3305E+00  0.4100E-07  0.0000E+00  0.0000E+00  0.2382E-43
REACH   18        0    24  0.2198E+03  0.8543E-01  0.8570E-01  0.0000E+00  0.8543E-01  0.2598E-07  0.2598E-07  0.3509E-05  0.2522E-43
REACH   19        0    24  0.2425E+04  0.3233E+00  0.3245E+00  0.0000E+00  0.3233E+00  0.7089E-07  0.0000E+00  0.0000E+00  0.2662E-43
REACH   20        0    24  0.3435E+03  0.4789E-01  0.4808E-01  0.0000E+00  0.4789E-01  0.2091E-07  0.2091E-07  0.5033E-05  0.2803E-43
REACH   21        0    24  0.1644E+04  0.2089E+00  0.2094E+00  0.0000E+00  0.2089E+00  0.6114E-07  0.0000E+00  0.0000E+00  0.2943E-43
REACH   22        0    24  0.6718E+03  0.5498E-01  0.5512E-01  0.0000E+00  0.5498E-01  0.1654E-07  0.1654E-07  0.3473E-05  0.3083E-43
REACH   23        0    24  0.3564E+03  0.8781E-01  0.8800E-01  0.0000E+00  0.8781E-01  0.1985E-07  0.1985E-07  0.2610E-05  0.3223E-43
REACH    1        0    25  0.9887E+04  0.1887E+01  0.1892E+01  0.0000E+00  0.1887E+01  0.5298E-07  0.0000E+00  0.0000E+00  0.1401E-44
REACH    2        0    25  0.3782E+03  0.4888E-01  0.4887E-01  0.0000E+00  0.4888E-01  0.1451E-07  0.1451E-07  0.3436E-05  0.2803E-44
REACH    3        0    25  0.1486E+04  0.1769E+00  0.1752E+00  0.0000E+00  0.1769E+00  0.1204E-07  0.1204E-07  0.7955E-06  0.4204E-44
REACH    4        0    25  0.9456E+04  0.1879E+01  0.1886E+01  0.0000E+00  0.1879E+01  0.1499E-07  0.0000E+00  0.0000E+00  0.5605E-44
REACH    5        0    25  0.2643E+03  0.4056E-01  0.4053E-01  0.0000E+00  0.4056E-01  0.3398E-07  0.3398E-07  0.9702E-05  0.7006E-44
REACH    6        0    25  0.7374E+03  0.1150E+00  0.1152E+00  0.0000E+00  0.1150E+00  0.7296E-07  0.0000E+00  0.0000E+00  0.8408E-44
REACH    7        0    25  0.3091E+03  0.1024E-02  0.9389E-03  0.0000E+00  0.1024E-02  0.3498E-07  0.3498E-07  0.4312E-03  0.9809E-44
REACH    8        0    25  0.4145E+03  0.7451E-01  0.7442E-01  0.0000E+00  0.7451E-01  0.2999E-07  0.2999E-07  0.4664E-05  0.1121E-43
REACH    9        0    25  0.2583E+04  0.4385E+00  0.4376E+00  0.0000E+00  0.4385E+00  0.4102E-07  0.0000E+00  0.0000E+00  0.1261E-43
REACH   10        0    25  0.1039E+04  0.2486E+00  0.2482E+00  0.0000E+00  0.2486E+00  0.1258E-07  0.1258E-07  0.5867E-06  0.1401E-43
REACH   11        0    25  0.4033E+04  0.7834E+00  0.7844E+00  0.0000E+00  0.7834E+00  0.3241E-07  0.0000E+00  0.0000E+00  0.1541E-43
REACH   12        0    25  0.4536E+04  0.9980E+00  0.1002E+01  0.0000E+00  0.9980E+00  0.4297E-07  0.0000E+00  0.0000E+00  0.1682E-43
REACH   13        0    25  0.3339E+03  0.1627E+00  0.1630E+00  0.0000E+00  0.1627E+00  0.1697E-07  0.1697E-07  0.1205E-05  0.1822E-43
REACH   14        0    25  0.4614E+04  0.1017E+01  0.1021E+01  0.0000E+00  0.1017E+01  0.1895E-07  0.0000E+00  0.0000E+00  0.1962E-43
REACH   15        0    25  0.8564E+04  0.1759E+01  0.1763E+01  0.0000E+00  0.1759E+01  0.2391E-07  0.0000E+00  0.0000E+00  0.2102E-43
REACH   16        0    25  0.4974E+04  0.1133E+01  0.1137E+01  0.0000E+00  0.1133E+01  0.4295E-07  0.0000E+00  0.0000E+00  0.2242E-43
REACH   17        0    25  0.2471E+04  0.3282E+00  0.3297E+00  0.0000E+00  0.3282E+00  0.4100E-07  0.0000E+00  0.0000E+00  0.2382E-43
REACH   18        0    25  0.2198E+03  0.8506E-01  0.8531E-01  0.0000E+00  0.8506E-01  0.2598E-07  0.2598E-07  0.3525E-05  0.2522E-43
REACH   19        0    25  0.2425E+04  0.3209E+00  0.3222E+00  0.0000E+00  0.3209E+00  0.7089E-07  0.0000E+00  0.0000E+00  0.2662E-43
REACH   20        0    25  0.3435E+03  0.4757E-01  0.4773E-01  0.0000E+00  0.4757E-01  0.2091E-07  0.2091E-07  0.5070E-05  0.2803E-43
REACH   21        0    25  0.1644E+04  0.2072E+00  0.2077E+00  0.0000E+00  0.2072E+00  0.6114E-07  0.0000E+00  0.0000E+00  0.2943E-43
REACH   22        0    25  0.6718E+03  0.5445E-01  0.5442E-01  0.0000E+00  0.5445E-01  0.1654E-07  0.1654E-07  0.3518E-05  0.3083E-43
REACH   23        0    25  0.3564E+03  0.8744E-01  0.8759E-01  0.0000E+00  0.8744E-01  0.1985E-07  0.1985E-07  0.2623E-05  0.3223E-43
REACH    1        0    26  0.9887E+04  0.1876E+01  0.1883E+01  0.0000E+00  0.1876E+01  0.5298E-07  0.0000E+00  0.0000E+00  0.1401E-44
REACH    2        0    26  0.3782E+03  0.4868E-01  0.4848E-01  0.0000E+00  0.4868E-01  0.1451E-07  0.1451E-07  0.3464E-05  0.2803E-44
REACH    3        0    26  0.1486E+04  0.1761E+00  0.1727E+00  0.0000E+00  0.1761E+00  0.1204E-07  0.1204E-07  0.8071E-06  0.4204E-44
REACH    4        0    26  0.9456E+04  0.1868E+01  0.1875E+01  0.0000E+00  0.1868E+01  0.1499E-07  0.0000E+00  0.0000E+00  0.5605E-44
REACH    5        0    26  0.2643E+03  0.4040E-01  0.4019E-01  0.0000E+00  0.4040E-01  0.3398E-07  0.3398E-07  0.9785E-05  0.7006E-44
REACH    6        0    26  0.7374E+03  0.1139E+00  0.1140E+00  0.0000E+00  0.1139E+00  0.7296E-07  0.0000E+00  0.0000E+00  0.8408E-44
REACH    7        0    26  0.3091E+03  0.1005E-02  0.9257E-03  0.0000E+00  0.1005E-02  0.3498E-07  0.3498E-07  0.4374E-03  0.9809E-44
REACH    8        0    26  0.4145E+03  0.7420E-01  0.7369E-01  0.0000E+00  0.7420E-01  0.2999E-07  0.2999E-07  0.4710E-05  0.1121E-43
REACH    9        0    26  0.2583E+04  0.4346E+00  0.4314E+00  0.0000E+00  0.4346E+00  0.4102E-07  0.0000E+00  0.0000E+00  0.1261E-43
REACH   10        0    26  0.1039E+04  0.2473E+00  0.2451E+00  0.0000E+00  0.2473E+00  0.1258E-07  0.1258E-07  0.5940E-06  0.1401E-43
REACH   11        0    26  0.4033E+04  0.7737E+00  0.7742E+00  0.0000E+00  0.7737E+00  0.3241E-07  0.0000E+00  0.0000E+00  0.1541E-43
REACH   12        0    26  0.4536E+04  0.9868E+00  0.9929E+00  0.0000E+00  0.9868E+00  0.4297E-07  0.0000E+00  0.0000E+00  0.1682E-43
REACH   13        0    26  0.3339E+03  0.1622E+00  0.1622E+00  0.0000E+00  0.1622E+00  0.1697E-07  0.1697E-07  0.1211E-05  0.1822E-43
REACH   14        0    26  0.4614E+04  0.1008E+01  0.1013E+01  0.0000E+00  0.1008E+01  0.1895E-07  0.0000E+00  0.0000E+00  0.1962E-43
REACH   15        0    26  0.8564E+04  0.1748E+01  0.1753E+01  0.0000E+00  0.1748E+01  0.2391E-07  0.0000E+00  0.0000E+00  0.2102E-43
REACH   16        0    26  0.4974E+04  0.1125E+01  0.1130E+01  0.0000E+00  0.1125E+01  0.4295E-07  0.0000E+00  0.0000E+00  0.2242E-43
REACH   17        0    26  0.2471E+04  0.3257E+00  0.3273E+00  0.0000E+00  0.3257E+00  0.4100E-07  0.0000E+00  0.0000E+00  0.2382E-43
REACH   18        0    26  0.2198E+03  0.8470E-01  0.8495E-01  0.0000E+00  0.8470E-01  0.2598E-07  0.2598E-07  0.3539E-05  0.2522E-43
[...]
REACH   13        0   359  0.3339E+03  0.1546E+00  0.1554E+00  0.0000E+00  0.1546E+00  0.1697E-07  0.1697E-07  0.1264E-05  0.1822E-43
REACH   14        0   359  0.4614E+04  0.1771E+01  0.1779E+01  0.0000E+00  0.1771E+01  0.1895E-07  0.0000E+00  0.0000E+00  0.1962E-43
REACH   15        0   359  0.8564E+04  0.2640E+01  0.2652E+01  0.0000E+00  0.2640E+01  0.2391E-07  0.0000E+00  0.0000E+00  0.2102E-43
REACH   16        0   359  0.4974E+04  0.1882E+01  0.1891E+01  0.0000E+00  0.1882E+01  0.4295E-07  0.0000E+00  0.0000E+00  0.2242E-43
REACH   17        0   359  0.2471E+04  0.4898E+00  0.4942E+00  0.0000E+00  0.4898E+00  0.4100E-07  0.0000E+00  0.0000E+00  0.2382E-43
REACH   18        0   359  0.2198E+03  0.8435E-01  0.8481E-01  0.0000E+00  0.8435E-01  0.2598E-07  0.2598E-07  0.3545E-05  0.2522E-43
REACH   19        0   359  0.2425E+04  0.4777E+00  0.4816E+00  0.0000E+00  0.4777E+00  0.7089E-07  0.0000E+00  0.0000E+00  0.2662E-43
REACH   20        0   359  0.3435E+03  0.6901E-01  0.6960E-01  0.0000E+00  0.6901E-01  0.2091E-07  0.2091E-07  0.3477E-05  0.2803E-43
REACH   21        0   359  0.1644E+04  0.2987E+00  0.3004E+00  0.0000E+00  0.2987E+00  0.6114E-07  0.0000E+00  0.0000E+00  0.2943E-43
REACH   22        0   359  0.6718E+03  0.8660E-01  0.8678E-01  0.0000E+00  0.8660E-01  0.1654E-07  0.1654E-07  0.2206E-05  0.3083E-43
REACH   23        0   359  0.3564E+03  0.1103E+00  0.1106E+00  0.0000E+00  0.1103E+00  0.1985E-07  0.1985E-07  0.2077E-05  0.3223E-43
REACH    1        0   360  0.9887E+04  0.2915E+01  0.2932E+01  0.0000E+00  0.2915E+01  0.5298E-07  0.0000E+00  0.0000E+00  0.1401E-44
REACH    2        0   360  0.3782E+03  0.6940E-01  0.6941E-01  0.0000E+00  0.6940E-01  0.1451E-07  0.1451E-07  0.2419E-05  0.2803E-44
REACH    3        0   360  0.1486E+04  0.3245E+00  0.3233E+00  0.0000E+00  0.3245E+00  0.1204E-07  0.1204E-07  0.4311E-06  0.4204E-44
REACH    4        0   360  0.9456E+04  0.2871E+01  0.2888E+01  0.0000E+00  0.2871E+01  0.1499E-07  0.0000E+00  0.0000E+00  0.5605E-44
REACH    5        0   360  0.2643E+03  0.8157E-01  0.8168E-01  0.0000E+00  0.8157E-01  0.3398E-07  0.3398E-07  0.4814E-05  0.7006E-44
REACH    6        0   360  0.7374E+03  0.2406E+00  0.2414E+00  0.0000E+00  0.2406E+00  0.7296E-07  0.0000E+00  0.0000E+00  0.8408E-44
REACH    7        0   360  0.3091E+03  0.2734E-01  0.2720E-01  0.0000E+00  0.2734E-01  0.3498E-07  0.3498E-07  0.1488E-04  0.9809E-44
REACH    8        0   360  0.4145E+03  0.1588E+00  0.1589E+00  0.0000E+00  0.1588E+00  0.2999E-07  0.2999E-07  0.2184E-05  0.1121E-43
REACH    9        0   360  0.2583E+04  0.7574E+00  0.7569E+00  0.0000E+00  0.7574E+00  0.4102E-07  0.0000E+00  0.0000E+00  0.1261E-43
REACH   10        0   360  0.1039E+04  0.5709E+00  0.5718E+00  0.0000E+00  0.5709E+00  0.1258E-07  0.1258E-07  0.2547E-06  0.1401E-43
REACH   11        0   360  0.4033E+04  0.1526E+01  0.1530E+01  0.0000E+00  0.1526E+01  0.3241E-07  0.0000E+00  0.0000E+00  0.1541E-43
REACH   12        0   360  0.4536E+04  0.1735E+01  0.1743E+01  0.0000E+00  0.1735E+01  0.4297E-07  0.0000E+00  0.0000E+00  0.1682E-43
REACH   13        0   360  0.3339E+03  0.1535E+00  0.1542E+00  0.0000E+00  0.1535E+00  0.1697E-07  0.1697E-07  0.1274E-05  0.1822E-43
REACH   14        0   360  0.4614E+04  0.1759E+01  0.1767E+01  0.0000E+00  0.1759E+01  0.1895E-07  0.0000E+00  0.0000E+00  0.1962E-43
REACH   15        0   360  0.8564E+04  0.2619E+01  0.2629E+01  0.0000E+00  0.2619E+01  0.2391E-07  0.0000E+00  0.0000E+00  0.2102E-43
REACH   16        0   360  0.4974E+04  0.1869E+01  0.1877E+01  0.0000E+00  0.1869E+01  0.4295E-07  0.0000E+00  0.0000E+00  0.2242E-43
REACH   17        0   360  0.2471E+04  0.4838E+00  0.4881E+00  0.0000E+00  0.4838E+00  0.4100E-07  0.0000E+00  0.0000E+00  0.2382E-43
REACH   18        0   360  0.2198E+03  0.8374E-01  0.8416E-01  0.0000E+00  0.8374E-01  0.2598E-07  0.2598E-07  0.3573E-05  0.2522E-43
REACH   19        0   360  0.2425E+04  0.4720E+00  0.4757E+00  0.0000E+00  0.4720E+00  0.7089E-07  0.0000E+00  0.0000E+00  0.2662E-43
REACH   20        0   360  0.3435E+03  0.6813E-01  0.6864E-01  0.0000E+00  0.6813E-01  0.2091E-07  0.2091E-07  0.3526E-05  0.2803E-43
REACH   21        0   360  0.1644E+04  0.2955E+00  0.2968E+00  0.0000E+00  0.2955E+00  0.6114E-07  0.0000E+00  0.0000E+00  0.2943E-43
REACH   22        0   360  0.6718E+03  0.8541E-01  0.8550E-01  0.0000E+00  0.8541E-01  0.1654E-07  0.1654E-07  0.2239E-05  0.3083E-43
REACH   23        0   360  0.3564E+03  0.1096E+00  0.1098E+00  0.0000E+00  0.1096E+00  0.1985E-07  0.1985E-07  0.2091E-05  0.3223E-43
REACH    1        0   361  0.9887E+04  0.2893E+01  0.2910E+01  0.0000E+00  0.2893E+01  0.5298E-07  0.0000E+00  0.0000E+00  0.1401E-44
REACH    2        0   361  0.3782E+03  0.6912E-01  0.6922E-01  0.0000E+00  0.6912E-01  0.1451E-07  0.1451E-07  0.2426E-05  0.2803E-44
REACH    3        0   361  0.1486E+04  0.3234E+00  0.3233E+00  0.0000E+00  0.3234E+00  0.1204E-07  0.1204E-07  0.4312E-06  0.4204E-44
REACH    4        0   361  0.9456E+04  0.2850E+01  0.2866E+01  0.0000E+00  0.2850E+01  0.1499E-07  0.0000E+00  0.0000E+00  0.5605E-44
REACH    5        0   361  0.2643E+03  0.8117E-01  0.8137E-01  0.0000E+00  0.8117E-01  0.3398E-07  0.3398E-07  0.4833E-05  0.7006E-44
REACH    6        0   361  0.7374E+03  0.2397E+00  0.2404E+00  0.0000E+00  0.2397E+00  0.7296E-07  0.0000E+00  0.0000E+00  0.8408E-44
REACH    7        0   361  0.3091E+03  0.2723E-01  0.2711E-01  0.0000E+00  0.2723E-01  0.3498E-07  0.3498E-07  0.1493E-04  0.9809E-44
REACH    8        0   361  0.4145E+03  0.1580E+00  0.1583E+00  0.0000E+00  0.1580E+00  0.2999E-07  0.2999E-07  0.2192E-05  0.1121E-43
REACH    9        0   361  0.2583E+04  0.7552E+00  0.7555E+00  0.0000E+00  0.7552E+00  0.4102E-07  0.0000E+00  0.0000E+00  0.1261E-43
REACH   10        0   361  0.1039E+04  0.5675E+00  0.5691E+00  0.0000E+00  0.5675E+00  0.1258E-07  0.1258E-07  0.2559E-06  0.1401E-43
REACH   11        0   361  0.4033E+04  0.1521E+01  0.1524E+01  0.0000E+00  0.1521E+01  0.3241E-07  0.0000E+00  0.0000E+00  0.1541E-43
REACH   12        0   361  0.4536E+04  0.1728E+01  0.1734E+01  0.0000E+00  0.1728E+01  0.4297E-07  0.0000E+00  0.0000E+00  0.1682E-43
REACH   13        0   361  0.3339E+03  0.1525E+00  0.1532E+00  0.0000E+00  0.1525E+00  0.1697E-07  0.1697E-07  0.1282E-05  0.1822E-43
REACH   14        0   361  0.4614E+04  0.1749E+01  0.1757E+01  0.0000E+00  0.1749E+01  0.1895E-07  0.0000E+00  0.0000E+00  0.1962E-43
REACH   15        0   361  0.8564E+04  0.2600E+01  0.2609E+01  0.0000E+00  0.2600E+01  0.2391E-07  0.0000E+00  0.0000E+00  0.2102E-43
REACH   16        0   361  0.4974E+04  0.1858E+01  0.1866E+01  0.0000E+00  0.1858E+01  0.4295E-07  0.0000E+00  0.0000E+00  0.2242E-43
REACH   17        0   361  0.2471E+04  0.4785E+00  0.4824E+00  0.0000E+00  0.4785E+00  0.4100E-07  0.0000E+00  0.0000E+00  0.2382E-43
REACH   18        0   361  0.2198E+03  0.8315E-01  0.8356E-01  0.0000E+00  0.8315E-01  0.2598E-07  0.2598E-07  0.3599E-05  0.2522E-43
REACH   19        0   361  0.2425E+04  0.4671E+00  0.4704E+00  0.0000E+00  0.4671E+00  0.7089E-07  0.0000E+00  0.0000E+00  0.2662E-43
REACH   20        0   361  0.3435E+03  0.6727E-01  0.6776E-01  0.0000E+00  0.6727E-01  0.2091E-07  0.2091E-07  0.3571E-05  0.2803E-43
REACH   21        0   361  0.1644E+04  0.2926E+00  0.2937E+00  0.0000E+00  0.2926E+00  0.6114E-07  0.0000E+00  0.0000E+00  0.2943E-43
REACH   22        0   361  0.6718E+03  0.8425E-01  0.8444E-01  0.0000E+00  0.8425E-01  0.1654E-07  0.1654E-07  0.2268E-05  0.3083E-43
REACH   23        0   361  0.3564E+03  0.1089E+00  0.1092E+00  0.0000E+00  0.1089E+00  0.1985E-07  0.1985E-07  0.2104E-05  0.3223E-43
REACH    1        0   362  0.9887E+04  0.2874E+01  0.2889E+01  0.0000E+00  0.2874E+01  0.5298E-07  0.0000E+00  0.0000E+00  0.1401E-44
REACH    2        0   362  0.3782E+03  0.6883E-01  0.6887E-01  0.0000E+00  0.6883E-01  0.1451E-07  0.1451E-07  0.2438E-05  0.2803E-44
REACH    3        0   362  0.1486E+04  0.3223E+00  0.3216E+00  0.0000E+00  0.3223E+00  0.1204E-07  0.1204E-07  0.4334E-06  0.4204E-44
REACH    4        0   362  0.9456E+04  0.2833E+01  0.2847E+01  0.0000E+00  0.2833E+01  0.1499E-07  0.0000E+00  0.0000E+00  0.5605E-44
REACH    5        0   362  0.2643E+03  0.8079E-01  0.8092E-01  0.0000E+00  0.8079E-01  0.3398E-07  0.3398E-07  0.4860E-05  0.7006E-44
REACH    6        0   362  0.7374E+03  0.2383E+00  0.2390E+00  0.0000E+00  0.2383E+00  0.7296E-07  0.0000E+00  0.0000E+00  0.8408E-44
REACH    7        0   362  0.3091E+03  0.2713E-01  0.2711E-01  0.0000E+00  0.2713E-01  0.3498E-07  0.3498E-07  0.1493E-04  0.9809E-44
REACH    8        0   362  0.4145E+03  0.1572E+00  0.1574E+00  0.0000E+00  0.1572E+00  0.2999E-07  0.2999E-07  0.2205E-05  0.1121E-43
REACH    9        0   362  0.2583E+04  0.7513E+00  0.7511E+00  0.0000E+00  0.7513E+00  0.4102E-07  0.0000E+00  0.0000E+00  0.1261E-43
REACH   10        0   362  0.1039E+04  0.5642E+00  0.5651E+00  0.0000E+00  0.5642E+00  0.1258E-07  0.1258E-07  0.2577E-06  0.1401E-43
REACH   11        0   362  0.4033E+04  0.1511E+01  0.1515E+01  0.0000E+00  0.1511E+01  0.3241E-07  0.0000E+00  0.0000E+00  0.1541E-43
REACH   12        0   362  0.4536E+04  0.1718E+01  0.1725E+01  0.0000E+00  0.1718E+01  0.4297E-07  0.0000E+00  0.0000E+00  0.1682E-43
REACH   13        0   362  0.3339E+03  0.1515E+00  0.1521E+00  0.0000E+00  0.1515E+00  0.1697E-07  0.1697E-07  0.1291E-05  0.1822E-43
REACH   14        0   362  0.4614E+04  0.1740E+01  0.1747E+01  0.0000E+00  0.1740E+01  0.1895E-07  0.0000E+00  0.0000E+00  0.1962E-43
REACH   15        0   362  0.8564E+04  0.2583E+01  0.2594E+01  0.0000E+00  0.2583E+01  0.2391E-07  0.0000E+00  0.0000E+00  0.2102E-43
REACH   16        0   362  0.4974E+04  0.1847E+01  0.1855E+01  0.0000E+00  0.1847E+01  0.4295E-07  0.0000E+00  0.0000E+00  0.2242E-43
REACH   17        0   362  0.2471E+04  0.4743E+00  0.4778E+00  0.0000E+00  0.4743E+00  0.4100E-07  0.0000E+00  0.0000E+00  0.2382E-43
REACH   18        0   362  0.2198E+03  0.8258E-01  0.8300E-01  0.0000E+00  0.8258E-01  0.2598E-07  0.2598E-07  0.3623E-05  0.2522E-43
REACH   19        0   362  0.2425E+04  0.4632E+00  0.4662E+00  0.0000E+00  0.4632E+00  0.7089E-07  0.0000E+00  0.0000E+00  0.2662E-43
REACH   20        0   362  0.3435E+03  0.6645E-01  0.6701E-01  0.0000E+00  0.6645E-01  0.2091E-07  0.2091E-07  0.3611E-05  0.2803E-43
REACH   21        0   362  0.1644E+04  0.2901E+00  0.2916E+00  0.0000E+00  0.2901E+00  0.6114E-07  0.0000E+00  0.0000E+00  0.2943E-43
REACH   22        0   362  0.6718E+03  0.8312E-01  0.8363E-01  0.0000E+00  0.8312E-01  0.1654E-07  0.1654E-07  0.2289E-05  0.3083E-43
REACH   23        0   362  0.3564E+03  0.1083E+00  0.1087E+00  0.0000E+00  0.1083E+00  0.1985E-07  0.1985E-07  0.2114E-05  0.3223E-43
REACH    1        0   363  0.9887E+04  0.2855E+01  0.2869E+01  0.0000E+00  0.2855E+01  0.5298E-07  0.0000E+00  0.0000E+00  0.1401E-44
REACH    2        0   363  0.3782E+03  0.6856E-01  0.6858E-01  0.0000E+00  0.6856E-01  0.1451E-07  0.1451E-07  0.2448E-05  0.2803E-44
REACH    3        0   363  0.1486E+04  0.3212E+00  0.3205E+00  0.0000E+00  0.3212E+00  0.1204E-07  0.1204E-07  0.4350E-06  0.4204E-44
REACH    4        0   363  0.9456E+04  0.2814E+01  0.2828E+01  0.0000E+00  0.2814E+01  0.1499E-07  0.0000E+00  0.0000E+00  0.5605E-44
REACH    5        0   363  0.2643E+03  0.8042E-01  0.8053E-01  0.0000E+00  0.8042E-01  0.3398E-07  0.3398E-07  0.4883E-05  0.7006E-44
REACH    6        0   363  0.7374E+03  0.2372E+00  0.2378E+00  0.0000E+00  0.2372E+00  0.7296E-07  0.0000E+00  0.0000E+00  0.8408E-44
REACH    7        0   363  0.3091E+03  0.2703E-01  0.2700E-01  0.0000E+00  0.2703E-01  0.3498E-07  0.3498E-07  0.1500E-04  0.9809E-44
REACH    8        0   363  0.4145E+03  0.1565E+00  0.1566E+00  0.0000E+00  0.1565E+00  0.2999E-07  0.2999E-07  0.2216E-05  0.1121E-43
REACH    9        0   363  0.2583E+04  0.7480E+00  0.7476E+00  0.0000E+00  0.7480E+00  0.4102E-07  0.0000E+00  0.0000E+00  0.1261E-43
REACH   10        0   363  0.1039E+04  0.5610E+00  0.5618E+00  0.0000E+00  0.5610E+00  0.1258E-07  0.1258E-07  0.2592E-06  0.1401E-43
REACH   11        0   363  0.4033E+04  0.1504E+01  0.1507E+01  0.0000E+00  0.1504E+01  0.3241E-07  0.0000E+00  0.0000E+00  0.1541E-43
REACH   12        0   363  0.4536E+04  0.1708E+01  0.1715E+01  0.0000E+00  0.1708E+01  0.4297E-07  0.0000E+00  0.0000E+00  0.1682E-43
REACH   13        0   363  0.3339E+03  0.1506E+00  0.1511E+00  0.0000E+00  0.1506E+00  0.1697E-07  0.1697E-07  0.1300E-05  0.1822E-43
REACH   14        0   363  0.4614E+04  0.1730E+01  0.1737E+01  0.0000E+00  0.1730E+01  0.1895E-07  0.0000E+00  0.0000E+00  0.1962E-43
REACH   15        0   363  0.8564E+04  0.2565E+01  0.2576E+01  0.0000E+00  0.2565E+01  0.2391E-07  0.0000E+00  0.0000E+00  0.2102E-43
REACH   16        0   363  0.4974E+04  0.1837E+01  0.1844E+01  0.0000E+00  0.1837E+01  0.4295E-07  0.0000E+00  0.0000E+00  0.2242E-43
REACH   17        0   363  0.2471E+04  0.4696E+00  0.4730E+00  0.0000E+00  0.4696E+00  0.4100E-07  0.0000E+00  0.0000E+00  0.2382E-43
REACH   18        0   363  0.2198E+03  0.8204E-01  0.8243E-01  0.0000E+00  0.8204E-01  0.2598E-07  0.2598E-07  0.3648E-05  0.2522E-43
REACH   19        0   363  0.2425E+04  0.4585E+00  0.4616E+00  0.0000E+00  0.4585E+00  0.7089E-07  0.0000E+00  0.0000E+00  0.2662E-43
REACH   20        0   363  0.3435E+03  0.6566E-01  0.6618E-01  0.0000E+00  0.6566E-01  0.2091E-07  0.2091E-07  0.3656E-05  0.2803E-43
REACH   21        0   363  0.1644E+04  0.2872E+00  0.2886E+00  0.0000E+00  0.2872E+00  0.6114E-07  0.0000E+00  0.0000E+00  0.2943E-43
REACH   22        0   363  0.6718E+03  0.8202E-01  0.8248E-01  0.0000E+00  0.8202E-01  0.1654E-07  0.1654E-07  0.2321E-05  0.3083E-43
REACH   23        0   363  0.3564E+03  0.1077E+00  0.1080E+00  0.0000E+00  0.1077E+00  0.1985E-07  0.1985E-07  0.2127E-05  0.3223E-43
REACH    1        0   364  0.9887E+04  0.2838E+01  0.2851E+01  0.0000E+00  0.2838E+01  0.5298E-07  0.0000E+00  0.0000E+00  0.1401E-44
REACH    2        0   364  0.3782E+03  0.6828E-01  0.6835E-01  0.0000E+00  0.6828E-01  0.1451E-07  0.1451E-07  0.2457E-05  0.2803E-44
REACH    3        0   364  0.1486E+04  0.3202E+00  0.3199E+00  0.0000E+00  0.3202E+00  0.1204E-07  0.1204E-07  0.4357E-06  0.4204E-44
REACH    4        0   364  0.9456E+04  0.2798E+01  0.2811E+01  0.0000E+00  0.2798E+01  0.1499E-07  0.0000E+00  0.0000E+00  0.5605E-44
REACH    5        0   364  0.2643E+03  0.8006E-01  0.8021E-01  0.0000E+00  0.8006E-01  0.3398E-07  0.3398E-07  0.4903E-05  0.7006E-44
REACH    6        0   364  0.7374E+03  0.2362E+00  0.2368E+00  0.0000E+00  0.2362E+00  0.7296E-07  0.0000E+00  0.0000E+00  0.8408E-44
REACH    7        0   364  0.3091E+03  0.2694E-01  0.2696E-01  0.0000E+00  0.2694E-01  0.3498E-07  0.3498E-07  0.1502E-04  0.9809E-44
REACH    8        0   364  0.4145E+03  0.1557E+00  0.1560E+00  0.0000E+00  0.1557E+00  0.2999E-07  0.2999E-07  0.2225E-05  0.1121E-43
REACH    9        0   364  0.2583E+04  0.7454E+00  0.7454E+00  0.0000E+00  0.7454E+00  0.4102E-07  0.0000E+00  0.0000E+00  0.1261E-43
REACH   10        0   364  0.1039E+04  0.5579E+00  0.5590E+00  0.0000E+00  0.5579E+00  0.1258E-07  0.1258E-07  0.2605E-06  0.1401E-43
REACH   11        0   364  0.4033E+04  0.1498E+01  0.1501E+01  0.0000E+00  0.1498E+01  0.3241E-07  0.0000E+00  0.0000E+00  0.1541E-43
REACH   12        0   364  0.4536E+04  0.1701E+01  0.1707E+01  0.0000E+00  0.1701E+01  0.4297E-07  0.0000E+00  0.0000E+00  0.1682E-43
REACH   13        0   364  0.3339E+03  0.1496E+00  0.1502E+00  0.0000E+00  0.1496E+00  0.1697E-07  0.1697E-07  0.1308E-05  0.1822E-43
REACH   14        0   364  0.4614E+04  0.1721E+01  0.1728E+01  0.0000E+00  0.1721E+01  0.1895E-07  0.0000E+00  0.0000E+00  0.1962E-43
REACH   15        0   364  0.8564E+04  0.2550E+01  0.2561E+01  0.0000E+00  0.2550E+01  0.2391E-07  0.0000E+00  0.0000E+00  0.2102E-43
REACH   16        0   364  0.4974E+04  0.1827E+01  0.1834E+01  0.0000E+00  0.1827E+01  0.4295E-07  0.0000E+00  0.0000E+00  0.2242E-43
REACH   17        0   364  0.2471E+04  0.4654E+00  0.4687E+00  0.0000E+00  0.4654E+00  0.4100E-07  0.0000E+00  0.0000E+00  0.2382E-43
REACH   18        0   364  0.2198E+03  0.8152E-01  0.8190E-01  0.0000E+00  0.8152E-01  0.2598E-07  0.2598E-07  0.3671E-05  0.2522E-43
REACH   19        0   364  0.2425E+04  0.4545E+00  0.4575E+00  0.0000E+00  0.4545E+00  0.7089E-07  0.0000E+00  0.0000E+00  0.2662E-43
REACH   20        0   364  0.3435E+03  0.6490E-01  0.6544E-01  0.0000E+00  0.6490E-01  0.2091E-07  0.2091E-07  0.3698E-05  0.2803E-43
REACH   21        0   364  0.1644E+04  0.2846E+00  0.2863E+00  0.0000E+00  0.2846E+00  0.6114E-07  0.0000E+00  0.0000E+00  0.2943E-43
REACH   22        0   364  0.6718E+03  0.8095E-01  0.8156E-01  0.0000E+00  0.8095E-01  0.1654E-07  0.1654E-07  0.2347E-05  0.3083E-43
REACH   23        0   364  0.3564E+03  0.1071E+00  0.1075E+00  0.0000E+00  0.1071E+00  0.1985E-07  0.1985E-07  0.2138E-05  0.3223E-43
REACH    1        0   365  0.9887E+04  0.2821E+01  0.2833E+01  0.0000E+00  0.2821E+01  0.5298E-07  0.0000E+00  0.0000E+00  0.1401E-44
REACH    2        0   365  0.3782E+03  0.6801E-01  0.6810E-01  0.0000E+00  0.6801E-01  0.1451E-07  0.1451E-07  0.2466E-05  0.2803E-44
REACH    3        0   365  0.1486E+04  0.3191E+00  0.3188E+00  0.0000E+00  0.3191E+00  0.1204E-07  0.1204E-07  0.4373E-06  0.4204E-44
REACH    4        0   365  0.9456E+04  0.2782E+01  0.2794E+01  0.0000E+00  0.2782E+01  0.1499E-07  0.0000E+00  0.0000E+00  0.5605E-44
REACH    5        0   365  0.2643E+03  0.7971E-01  0.7987E-01  0.0000E+00  0.7971E-01  0.3398E-07  0.3398E-07  0.4924E-05  0.7006E-44
REACH    6        0   365  0.7374E+03  0.2352E+00  0.2358E+00  0.0000E+00  0.2352E+00  0.7296E-07  0.0000E+00  0.0000E+00  0.8408E-44
REACH    7        0   365  0.3091E+03  0.2685E-01  0.2689E-01  0.0000E+00  0.2685E-01  0.3498E-07  0.3498E-07  0.1506E-04  0.9809E-44
REACH    8        0   365  0.4145E+03  0.1550E+00  0.1553E+00  0.0000E+00  0.1550E+00  0.2999E-07  0.2999E-07  0.2234E-05  0.1121E-43
REACH    9        0   365  0.2583E+04  0.7422E+00  0.7427E+00  0.0000E+00  0.7422E+00  0.4102E-07  0.0000E+00  0.0000E+00  0.1261E-43
REACH   10        0   365  0.1039E+04  0.5548E+00  0.5560E+00  0.0000E+00  0.5548E+00  0.1258E-07  0.1258E-07  0.2619E-06  0.1401E-43
REACH   11        0   365  0.4033E+04  0.1491E+01  0.1494E+01  0.0000E+00  0.1491E+01  0.3241E-07  0.0000E+00  0.0000E+00  0.1541E-43
REACH   12        0   365  0.4536E+04  0.1693E+01  0.1699E+01  0.0000E+00  0.1693E+01  0.4297E-07  0.0000E+00  0.0000E+00  0.1682E-43
REACH   13        0   365  0.3339E+03  0.1487E+00  0.1493E+00  0.0000E+00  0.1487E+00  0.1697E-07  0.1697E-07  0.1316E-05  0.1822E-43
REACH   14        0   365  0.4614E+04  0.1713E+01  0.1720E+01  0.0000E+00  0.1713E+01  0.1895E-07  0.0000E+00  0.0000E+00  0.1962E-43
REACH   15        0   365  0.8564E+04  0.2535E+01  0.2546E+01  0.0000E+00  0.2535E+01  0.2391E-07  0.0000E+00  0.0000E+00  0.2102E-43
REACH   16        0   365  0.4974E+04  0.1818E+01  0.1825E+01  0.0000E+00  0.1818E+01  0.4295E-07  0.0000E+00  0.0000E+00  0.2242E-43
REACH   17        0   365  0.2471E+04  0.4613E+00  0.4644E+00  0.0000E+00  0.4613E+00  0.4100E-07  0.0000E+00  0.0000E+00  0.2382E-43
REACH   18        0   365  0.2198E+03  0.8101E-01  0.8139E-01  0.0000E+00  0.8101E-01  0.2598E-07  0.2598E-07  0.3694E-05  0.2522E-43
REACH   19        0   365  0.2425E+04  0.4504E+00  0.4534E+00  0.0000E+00  0.4504E+00  0.7089E-07  0.0000E+00  0.0000E+00  0.2662E-43
REACH   20        0   365  0.3435E+03  0.6417E-01  0.6471E-01  0.0000E+00  0.6417E-01  0.2091E-07  0.2091E-07  0.3740E-05  0.2803E-43
REACH   21        0   365  0.1644E+04  0.2820E+00  0.2838E+00  0.0000E+00  0.2820E+00  0.6114E-07  0.0000E+00  0.0000E+00  0.2943E-43
REACH   22        0   365  0.6718E+03  0.7991E-01  0.8057E-01  0.0000E+00  0.7991E-01  0.1654E-07  0.1654E-07  0.2376E-05  0.3083E-43
REACH   23        0   365  0.3564E+03  0.1065E+00  0.1069E+00  0.0000E+00  0.1065E+00  0.1985E-07  0.1985E-07  0.2149E-05  0.3223E-43
