1
    SWAT Dec 11 2014    VER 2012/Rev 635                                                                 0/ 0/   0      0: 0: 0

    General Input/Output section (file.cio):                                        
    2020/2/22 0:00:00 ARCGIS-SWAT interface AV                                      
                                                                                    
         Number of years in run:    5
         Area of watershed:     9886.746 km2
1
    SWAT Dec 11 2014    VER 2012/Rev 635                                            

    General Input/Output section (file.cio):                                        
    2020/2/22 0:00:00 ARCGIS-SWAT interface AV                                      
                                                                                    
Annual Summary for Watershed in year    1 of simulation

UNIT                                    PERCO    TILE                           WATER     SED     NO3     NO3     NO3     NO3        N       P       P
TIME     PREC    SURQ    LATQ     GWQ    LATE       Q     SW       ET     PET   YIELD   YIELD    SURQ    LATQ    PERC    CROP  ORGANIC SOLUBLE ORGANIC TILENO3
         (mm)    (mm)    (mm)    (mm)    (mm)    (mm)    (mm)    (mm)    (mm)    (mm)    (mm)   ------------------(kg nutrient/ha)-------------------- (kg/ha)
1
    SWAT Dec 11 2014    VER 2012/Rev 635                                            

    General Input/Output section (file.cio):                                        
    2020/2/22 0:00:00 ARCGIS-SWAT interface AV                                      
                                                                                    
Annual Summary for Watershed in year    2 of simulation

UNIT                                    PERCO    TILE                           WATER     SED     NO3     NO3     NO3     NO3        N       P       P
TIME     PREC    SURQ    LATQ     GWQ    LATE       Q     SW       ET     PET   YIELD   YIELD    SURQ    LATQ    PERC    CROP  ORGANIC SOLUBLE ORGANIC TILENO3
         (mm)    (mm)    (mm)    (mm)    (mm)    (mm)    (mm)    (mm)    (mm)    (mm)    (mm)   ------------------(kg nutrient/ha)-------------------- (kg/ha)
1
    SWAT Dec 11 2014    VER 2012/Rev 635                                            

    General Input/Output section (file.cio):                                        
    2020/2/22 0:00:00 ARCGIS-SWAT interface AV                                      
                                                                                    
Annual Summary for Watershed in year    3 of simulation

UNIT                                    PERCO    TILE                           WATER     SED     NO3     NO3     NO3     NO3        N       P       P
TIME     PREC    SURQ    LATQ     GWQ    LATE       Q     SW       ET     PET   YIELD   YIELD    SURQ    LATQ    PERC    CROP  ORGANIC SOLUBLE ORGANIC TILENO3
         (mm)    (mm)    (mm)    (mm)    (mm)    (mm)    (mm)    (mm)    (mm)    (mm)    (mm)   ------------------(kg nutrient/ha)-------------------- (kg/ha)
    1    0.00    0.00    0.00    0.00    0.00    0.00   39.81    0.03    0.05    0.02    0.00    0.00    0.00    0.00    0.00     0.00    0.00    0.00    0.00
    2    0.00    0.00    0.00    0.00    0.00    0.00   39.74    0.10    0.30    0.02    0.00    0.00    0.00    0.00    0.00     0.00    0.00    0.00    0.00
    3    0.95    0.00    0.00    0.00    0.00    0.00   39.67    0.08    0.29    0.02    0.00    0.00    0.00    0.00    0.00     0.00    0.00    0.00    0.00
    4    0.81    0.00    0.00    0.00    0.00    0.00   39.61    0.08    0.21    0.02    0.00    0.00    0.00    0.00    0.00     0.00    0.00    0.00    0.00
    5    0.00    0.00    0.00    0.00    0.00    0.00   39.56    0.07    0.14    0.02    0.00    0.00    0.00    0.00    0.00     0.00    0.00    0.00    0.00
    6    0.00    0.00    0.00    0.00    0.00    0.00   39.55    0.03    0.07    0.02    0.00    0.00    0.00    0.00    0.00     0.00    0.00    0.00    0.00
    7    0.00    0.00    0.00    0.00    0.00    0.00   39.53    0.04    0.10    0.02    0.00    0.00    0.00    0.00    0.00     0.00    0.00    0.00    0.00
    8    0.00    0.00    0.00    0.00    0.00    0.00   39.50    0.05    0.12    0.02    0.00    0.00    0.00    0.00    0.00     0.00    0.00    0.00    0.00
    9    0.00    0.00    0.00    0.00    0.00    0.00   39.45    0.07    0.17    0.02    0.00    0.00    0.00    0.00    0.00     0.00    0.00    0.00    0.00
   10    0.00    0.00    0.00    0.00    0.00    0.00   39.43    0.04    0.10    0.02    0.00    0.00    0.00    0.00    0.00     0.00    0.00    0.00    0.00
   11    0.00    0.00    0.00    0.00    0.00    0.00   39.41    0.04    0.07    0.02    0.00    0.00    0.00    0.00    0.00     0.00    0.00    0.00    0.00
   12    0.00    0.00    0.00    0.00    0.00    0.00   39.38    0.05    0.11    0.02    0.00    0.00    0.00    0.00    0.00     0.00    0.00    0.00    0.00
   13    0.00    0.00    0.00    0.00    0.00    0.00   39.34    0.06    0.18    0.02    0.00    0.00    0.00    0.00    0.00     0.00    0.00    0.00    0.00
   14    0.48    0.00    0.00    0.00    0.00    0.00   39.32    0.03    0.08    0.02    0.00    0.00    0.00    0.00    0.00     0.00    0.00    0.00    0.00
   15    0.44    0.00    0.00    0.00    0.00    0.00   39.32    0.02    0.07    0.02    0.00    0.00    0.00    0.00    0.00     0.00    0.00    0.00    0.00
   16    0.00    0.00    0.00    0.00    0.00    0.00   39.28    0.05    0.12    0.02    0.00    0.00    0.00    0.00    0.00     0.00    0.00    0.00    0.00
   17    0.00    0.00    0.00    0.00    0.00    0.00   39.26    0.04    0.09    0.02    0.00    0.00    0.00    0.00    0.00     0.00    0.00    0.00    0.00
   18    0.00    0.00    0.00    0.00    0.00    0.00   39.20    0.08    0.23    0.02    0.00    0.00    0.00    0.00    0.00     0.00    0.00    0.00    0.00
   19    0.00    0.00    0.00    0.00    0.00    0.00   39.15    0.06    0.15    0.02    0.00    0.00    0.00    0.00    0.00     0.00    0.00    0.00    0.00
   20    0.00    0.00    0.00    0.00    0.00    0.00   39.12    0.05    0.11    0.02    0.00    0.00    0.00    0.00    0.00     0.00    0.00    0.00    0.00
   21    0.00    0.00    0.00    0.00    0.00    0.00   39.06    0.09    0.31    0.02    0.00    0.00    0.00    0.00    0.00     0.00    0.00    0.00    0.00
   22    0.00    0.00    0.00    0.00    0.00    0.00   39.00    0.08    0.24    0.02    0.00    0.00    0.00    0.00    0.00     0.00    0.00    0.00    0.00
   23    0.00    0.00    0.00    0.00    0.00    0.00   38.87    0.15    0.43    0.02    0.00    0.00    0.00    0.00    0.00     0.00    0.00    0.00    0.00
   24    0.00    0.00    0.00    0.00    0.00    0.00   38.81    0.08    0.24    0.02    0.00    0.00    0.00    0.00    0.00     0.00    0.00    0.00    0.00
   25    0.84    0.00    0.00    0.00    0.00    0.00   38.70    0.13    0.38    0.02    0.00    0.00    0.00    0.00    0.00     0.00    0.00    0.00    0.00
   26    0.50    0.00    0.00    0.00    0.00    0.00   38.44    0.28    0.77    0.02    0.00    0.00    0.00    0.00    0.00     0.00    0.00    0.00    0.00
   27    0.00    0.00    0.00    0.00    0.00    0.00   38.36    0.11    0.26    0.02    0.00    0.00    0.00    0.00    0.00     0.00    0.00    0.00    0.00
   28    0.00    0.00    0.00    0.00    0.00    0.00   38.26    0.13    0.32    0.02    0.00    0.00    0.00    0.00    0.00     0.00    0.00    0.00    0.00
   29    0.00    0.00    0.00    0.00    0.00    0.00   38.15    0.14    0.41    0.02    0.00    0.00    0.00    0.00    0.00     0.00    0.00    0.00    0.00
   30    0.00    0.00    0.00    0.00    0.00    0.00   38.02    0.16    0.58    0.02    0.00    0.00    0.00    0.00    0.00     0.00    0.00    0.00    0.00
   31    0.00    0.00    0.00    0.00    0.00    0.00   37.94    0.11    0.39    0.02    0.00    0.00    0.00    0.00    0.00     0.00    0.00    0.00    0.00
    1    4.02    0.00    0.07    0.00    0.00    0.00   37.94    2.53    7.13    0.51    0.00    0.00    0.00    0.00    0.00     0.00    0.00    0.00    0.00
   32    0.00    0.00    0.00    0.00    0.00    0.00   37.87    0.15    0.51    0.02    0.00    0.00    0.00    0.00    0.00     0.00    0.00    0.00    0.00
   33    0.00    0.00    0.00    0.00    0.00    0.00   37.76    0.14    0.39    0.02    0.00    0.00    0.00    0.00    0.00     0.00    0.00    0.00    0.00
   34    0.00    0.00    0.00    0.00    0.00    0.00   37.68    0.13    0.40    0.02    0.00    0.00    0.00    0.00    0.00     0.00    0.00    0.00    0.00
   35    0.00    0.00    0.00    0.00    0.00    0.00   37.58    0.13    0.41    0.02    0.00    0.00    0.00    0.00    0.00     0.00    0.00    0.00    0.00
   36    0.00    0.00    0.00    0.00    0.00    0.00   37.51    0.13    0.36    0.01    0.00    0.00    0.00    0.00    0.00     0.00    0.00    0.00    0.00
   37    0.00    0.00    0.00    0.00    0.00    0.00   37.44    0.11    0.29    0.01    0.00    0.00    0.00    0.00    0.00     0.00    0.00    0.00    0.00
   38    0.00    0.00    0.00    0.00    0.00    0.00   37.38    0.10    0.32    0.01    0.00    0.00    0.00    0.00    0.00     0.00    0.00    0.00    0.00
   39    0.00    0.00    0.00    0.00    0.00    0.00   37.31    0.09    0.26    0.01    0.00    0.00    0.00    0.00    0.00     0.00    0.00    0.00    0.00
   40    0.00    0.00    0.00    0.00    0.00    0.00   37.19    0.16    0.55    0.01    0.00    0.00    0.00    0.00    0.00     0.00    0.00    0.00    0.00
   41    0.00    0.01    0.00    0.00    0.00    0.00   37.29    0.20    0.61    0.02    0.02    0.00    0.00    0.00    0.00     0.03    0.00    0.00    0.00
   42    0.00    0.06    0.00    0.00    0.00    0.00   37.70    0.20    0.50    0.07    0.05    0.00    0.00    0.00    0.00     0.19    0.00    0.02    0.00
   43    0.00    0.00    0.00    0.00    0.00    0.00   37.45    0.30    0.84    0.02    0.00    0.00    0.00    0.00    0.00     0.00    0.00    0.00    0.00
   44    0.00    0.00    0.00    0.00    0.00    0.00   37.34    0.14    0.39    0.01    0.00    0.00    0.00    0.00    0.00     0.00    0.00    0.00    0.00
   45    0.06    0.00    0.00    0.00    0.00    0.00   37.25    0.14    0.35    0.01    0.00    0.00    0.00    0.00    0.00     0.00    0.00    0.00    0.00
   46    0.06    0.00    0.00    0.00    0.00    0.00   37.17    0.12    0.29    0.01    0.00    0.00    0.00    0.00    0.00     0.00    0.00    0.00    0.00
   47    0.88    0.00    0.00    0.00    0.00    0.00   37.10    0.20    0.52    0.01    0.00    0.00    0.00    0.00    0.00     0.00    0.00    0.00    0.00
   48    1.87    0.00    0.00    0.00    0.00    0.00   37.06    0.07    0.18    0.01    0.00    0.00    0.00    0.00    0.00     0.00    0.00    0.00    0.00
   49    0.00    0.00    0.00    0.00    0.00    0.00   36.97    0.17    0.40    0.01    0.00    0.00    0.00    0.00    0.00     0.00    0.00    0.00    0.00
   50    0.00    0.00    0.00    0.00    0.00    0.00   36.89    0.12    0.30    0.01    0.00    0.00    0.00    0.00    0.00     0.00    0.00    0.00    0.00
   51    0.00    0.00    0.00    0.00    0.00    0.00   36.80    0.12    0.29    0.01    0.00    0.00    0.00    0.00    0.00     0.00    0.00    0.00    0.00
   52    0.00    0.00    0.00    0.00    0.00    0.00   36.61    0.23    0.65    0.01    0.00    0.00    0.00    0.00    0.00     0.00    0.00    0.00    0.00
   53    0.00    0.00    0.00    0.00    0.00    0.00   36.54    0.18    0.52    0.01    0.00    0.00    0.00    0.00    0.00     0.00    0.00    0.00    0.00
   54    0.09    0.00    0.00    0.00    0.00    0.00   36.35    0.32    0.96    0.01    0.00    0.00    0.00    0.00    0.00     0.00    0.00    0.00    0.00
   55    0.00    0.18    0.00    0.00    0.00    0.00   37.04    0.36    0.84    0.18    0.27    0.01    0.00    0.00    0.00     0.73    0.00    0.09    0.00
   56    0.00    0.08    0.00    0.00    0.00    0.00   37.32    0.39    1.00    0.09    0.01    0.00    0.00    0.00    0.00     0.31    0.00    0.04    0.00
   57    0.05    1.72    0.00    0.00    0.00    0.00   39.55    0.43    0.79    1.59    2.16    0.01    0.00    0.00    0.00     6.35    0.00    0.78    0.00
   58    0.86    0.14    0.00    0.00    0.00    0.00   40.11    0.51    0.89    0.24    0.02    0.00    0.00    0.00    0.00     0.55    0.00    0.07    0.00
   59    0.84    0.04    0.00    0.00    0.00    0.00   40.39    0.46    0.73    0.10    0.05    0.00    0.00    0.00    0.00     0.25    0.00    0.03    0.00
    2    4.71    2.23    0.03    0.00    0.00    0.00   40.39    5.80   14.55    2.61    2.57    0.02    0.00    0.00    0.00     8.43    0.00    1.03    0.00
   60    0.38    0.59    0.00    0.00    0.00    0.00   40.67    0.97    1.48    0.45    0.14    0.01    0.00    0.00    0.00     0.32    0.00    0.04    0.00
   61    3.09    0.00    0.00    0.00    0.00    0.00   40.31    0.48    0.81    0.12    0.00    0.00    0.00    0.00    0.00     0.05    0.00    0.01    0.00
   62    1.16    0.00    0.00    0.00    0.00    0.00   40.08    0.26    0.43    0.05    0.00    0.00    0.00    0.00    0.00     0.02    0.00    0.00    0.00
   63    0.00    0.00    0.00    0.00    0.00    0.00   39.80    0.32    0.59    0.03    0.00    0.00    0.00    0.00    0.00     0.01    0.00    0.00    0.00
   64    0.00    0.00    0.00    0.00    0.00    0.00   39.57    0.27    0.52    0.02    0.00    0.00    0.00    0.00    0.00     0.00    0.00    0.00    0.00
   65    0.12    0.00    0.00    0.00    0.00    0.00   39.35    0.27    0.53    0.02    0.00    0.00    0.00    0.00    0.00     0.00    0.00    0.00    0.00
   66    0.70    0.00    0.00    0.00    0.00    0.00   39.14    0.27    0.58    0.01    0.00    0.00    0.00    0.00    0.00     0.00    0.00    0.00    0.00
   67    0.59    0.00    0.00    0.00    0.00    0.00   38.92    0.28    0.63    0.01    0.00    0.00    0.00    0.00    0.00     0.00    0.00    0.00    0.00
   68    0.00    0.00    0.00    0.00    0.00    0.00   38.62    0.35    0.79    0.01    0.00    0.00    0.00    0.00    0.00     0.00    0.00    0.00    0.00
   69    0.00    0.00    0.00    0.00    0.00    0.00   38.39    0.28    0.65    0.01    0.00    0.00    0.00    0.00    0.00     0.00    0.00    0.00    0.00
   70    0.00    0.00    0.00    0.00    0.00    0.00   38.15    0.30    0.70    0.01    0.00    0.00    0.00    0.00    0.00     0.00    0.00    0.00    0.00
   71    0.00    0.62    0.00    0.00    0.00    0.00   38.82    0.42    0.94    0.52    0.29    0.00    0.00    0.00    0.00     1.00    0.00    0.12    0.00
   72    2.63    0.24    0.00    0.00    0.00    0.00   39.69    0.28    0.42    0.30    0.09    0.00    0.00    0.00    0.00     0.56    0.00    0.07    0.00
   73    1.85    0.10    0.00    0.00    0.00    0.00   40.20    0.23    0.32    0.15    0.05    0.00    0.00    0.00    0.00     0.25    0.00    0.03    0.00
   74    3.10    0.05    0.00    0.00    0.00    0.00   40.54    0.16    0.30    0.08    0.01    0.00    0.00    0.00    0.00     0.15    0.00    0.02    0.00
   75    1.20    0.00    0.00    0.00    0.00    0.00   40.41    0.16    0.31    0.03    0.00    0.00    0.00    0.00    0.00     0.04    0.00    0.00    0.00
   76    0.00    0.00    0.00    0.00    0.00    0.00   40.19    0.27    0.54    0.02    0.00    0.00    0.00    0.00    0.00     0.01    0.00    0.00    0.00
   77    0.44    0.00    0.00    0.00    0.00    0.00   40.01    0.31    0.66    0.02    0.00    0.00    0.00    0.00    0.00     0.01    0.00    0.00    0.00
   78    0.00    0.00    0.00    0.00    0.00    0.00   39.94    0.23    0.47    0.01    0.00    0.00    0.00    0.00    0.00     0.00    0.00    0.00    0.00
   79    0.00    1.38    0.00    0.00    0.00    0.00   41.66    1.02    1.39    1.20    0.72    0.01    0.00    0.00    0.00     1.32    0.00    0.16    0.00
   80    0.00    2.45    0.00    0.00    0.00    0.00   42.62    1.40    1.86    2.12    0.72    0.01    0.00    0.00    0.00     0.76    0.00    0.09    0.00
   81    0.68    0.07    0.00    0.00    0.00    0.00   42.13    1.15    1.66    0.42    0.00    0.00    0.00    0.00    0.00     0.08    0.00    0.01    0.00
   82    1.32    0.05    0.00    0.00    0.00    0.00   42.36    0.58    0.81    0.19    0.06    0.00    0.00    0.00    0.00     0.14    0.00    0.02    0.00
   83    0.98    0.00    0.00    0.00    0.00    0.00   41.93    0.68    0.94    0.06    0.00    0.00    0.00    0.00    0.00     0.01    0.00    0.00    0.00
   84    0.00    0.00    0.00    0.00    0.00    0.00   41.05    1.04    1.51    0.03    0.00    0.00    0.00    0.00    0.00     0.00    0.00    0.00    0.00
   85    0.00    0.00    0.00    0.00    0.00    0.00   40.14    0.97    1.51    0.02    0.00    0.00    0.00    0.00    0.00     0.00    0.00    0.00    0.00
   86    0.00    0.09    0.00    0.00    0.00    0.00   39.65    1.24    2.30    0.09    0.03    0.00    0.00    0.00    0.00     0.02    0.00    0.00    0.00
   87    0.00    1.71    0.00    0.00    0.00    0.00   40.05    1.11    2.28    1.35    0.59    0.00    0.00    0.00    0.00     0.28    0.00    0.03    0.00
   88    0.00    1.80    0.02    0.00    0.00    0.00   40.31    1.17    2.28    1.69    0.11    0.00    0.00    0.00    0.00     0.29    0.00    0.04    0.00
   89    0.00    0.18    0.01    0.00    0.00    0.00   39.02    2.05    3.29    0.49    0.06    0.00    0.00    0.00    0.00     0.05    0.00    0.01    0.00
   90    0.00    0.00    0.00    0.00    0.00    0.00   37.12    2.00    3.26    0.16    0.00    0.00    0.00    0.00    0.00     0.01    0.00    0.00    0.00
    3   18.25    9.33    0.05    0.00    0.00    0.00   37.12   20.52   34.75    9.68    2.89    0.05    0.00    0.00    0.00     5.35    0.00    0.66    0.00
   91    0.00    0.00    0.00    0.00    0.00    0.00   35.48    1.71    2.99    0.07    0.00    0.00    0.00    0.00    0.00     0.00    0.00    0.00    0.00
   92    0.00    0.00    0.00    0.00    0.00    0.00   34.21    1.36    2.74    0.04    0.00    0.00    0.00    0.00    0.00     0.00    0.00    0.00    0.00
   93    0.00    0.00    0.00    0.00    0.00    0.00   33.00    1.30    2.82    0.02    0.00    0.00    0.00    0.00    0.00     0.00    0.00    0.00    0.00
   94    1.95    0.09    0.00    0.00    0.00    0.00   33.41    0.52    1.03    0.08    0.04    0.00    0.00    0.00    0.00     0.02    0.00    0.00    0.00
   95    0.00    0.01    0.00    0.00    0.00    0.00   32.79    1.13    1.97    0.04    0.02    0.00    0.00    0.00    0.00     0.03    0.00    0.00    0.00
   96    0.00    0.00    0.00    0.00    0.00    0.00   32.29    0.77    1.76    0.02    0.00    0.00    0.00    0.00    0.00     0.00    0.00    0.00    0.00
   97    0.38    0.00    0.00    0.00    0.00    0.00   31.88    0.73    2.06    0.02    0.00    0.00    0.00    0.00    0.00     0.00    0.00    0.00    0.00
   98    0.04    0.00    0.00    0.00    0.00    0.00   31.26    0.76    2.13    0.01    0.00    0.00    0.00    0.00    0.00     0.00    0.00    0.00    0.00
   99    0.00    0.00    0.00    0.00    0.00    0.00   30.56    0.79    2.51    0.01    0.00    0.00    0.00    0.00    0.00     0.00    0.00    0.00    0.00
  100    0.00    0.03    0.00    0.00    0.00    0.00   29.84    1.12    2.98    0.03    0.01    0.00    0.00    0.00    0.00     0.01    0.00    0.00    0.00
  101    1.04    0.10    0.01    0.00    0.00    0.00   29.47    1.32    2.79    0.10    0.04    0.00    0.00    0.00    0.00     0.03    0.00    0.00    0.00
  102    3.03    0.41    0.03    0.00    0.00    0.00   31.04    0.80    1.24    0.41    0.34    0.00    0.00    0.00    0.00     0.29    0.00    0.04    0.00
  103    5.22    0.43    0.11    0.00    0.01    0.00   34.08    0.76    1.12    0.51    0.50    0.00    0.00    0.00    0.00     0.44    0.00    0.05    0.00
  104    4.77    1.63    0.08    0.00    0.01    0.00   35.99    1.05    1.42    1.58    2.27    0.00    0.00    0.00    0.00     1.21    0.00    0.15    0.00
  105    3.69    0.85    0.09    0.00    0.04    0.00   38.45    0.46    0.68    1.02    0.37    0.00    0.00    0.00    0.00     0.64    0.00    0.08    0.00
  106    4.38    0.92    0.14    0.00    0.07    0.00   40.26    1.23    1.60    1.07    1.31    0.00    0.00    0.00    0.00     0.86    0.00    0.11    0.00
  107    0.31    0.06    0.09    0.00    0.01    0.00   38.40    2.40    2.93    0.27    0.01    0.00    0.00    0.00    0.00     0.10    0.00    0.01    0.00
  108    0.08    0.00    0.06    0.00    0.00    0.00   36.03    2.55    3.65    0.12    0.00    0.00    0.00    0.00    0.00     0.03    0.00    0.00    0.00
  109    0.86    0.03    0.05    0.00    0.00    0.00   35.37    1.52    2.36    0.10    0.03    0.00    0.00    0.00    0.00     0.02    0.00    0.00    0.00
  110    0.26    0.03    0.04    0.00    0.00    0.00   33.99    1.69    2.75    0.08    0.01    0.00    0.00    0.00    0.00     0.01    0.00    0.00    0.00
  111    0.00    0.00    0.03    0.00    0.00    0.00   32.70    1.38    2.62    0.05    0.00    0.00    0.00    0.00    0.00     0.00    0.00    0.00    0.00
  112    0.82    0.06    0.04    0.00    0.00    0.00   31.58    1.89    3.71    0.10    0.07    0.00    0.00    0.00    0.00     0.02    0.00    0.00    0.00
  113    0.35    0.02    0.04    0.00    0.00    0.00   30.52    1.44    2.95    0.07    0.00    0.00    0.00    0.00    0.00     0.01    0.00    0.00    0.00
  114    0.00    0.00    0.03    0.00    0.00    0.00   29.34    1.28    2.77    0.04    0.00    0.00    0.00    0.00    0.00     0.00    0.00    0.00    0.00
  115    0.87    0.06    0.03    0.00    0.00    0.00   29.07    1.08    2.16    0.09    0.05    0.00    0.00    0.00    0.00     0.01    0.00    0.00    0.00
  116    0.00    0.00    0.02    0.00    0.00    0.00   27.84    1.32    2.81    0.05    0.00    0.00    0.00    0.00    0.00     0.00    0.00    0.00    0.00
  117    1.66    0.12    0.04    0.00    0.01    0.00   28.24    1.04    1.84    0.15    0.09    0.00    0.00    0.00    0.00     0.04    0.00    0.00    0.00
  118    0.21    0.01    0.04    0.00    0.00    0.00   27.40    1.08    2.25    0.07    0.04    0.00    0.00    0.00    0.00     0.01    0.00    0.00    0.00
  119    0.21    0.01    0.04    0.00    0.00    0.00   26.19    1.46    3.41    0.06    0.00    0.00    0.00    0.00    0.00     0.01    0.00    0.00    0.00
  120    0.00    0.00    0.03    0.00    0.00    0.00   24.80    1.51    3.92    0.04    0.00    0.00    0.00    0.00    0.00     0.00    0.00    0.00    0.00
    4   30.13    4.86    1.04    0.00    0.16    0.00   24.80   37.46   71.96    6.32    5.17    0.01    0.00    0.00    0.00     3.82    0.00    0.47    0.00
  121    0.04    0.00    0.02    0.00    0.03    0.00   23.23    1.71    4.55    0.03    0.00    0.00    0.00    0.00    0.00     0.00    0.00    0.00    0.00
  122    4.12    0.42    0.12    0.00    0.17    0.00   24.55    1.83    4.03    0.48    1.06    0.00    0.00    0.00    0.00     1.04    0.00    0.13    0.00
  123    1.20    0.00    0.07    0.00    0.05    0.00   23.78    1.94    3.30    0.13    0.00    0.00    0.00    0.00    0.00     0.18    0.00    0.02    0.00
  124    0.00    0.00    0.05    0.00    0.04    0.00   21.98    1.89    4.57    0.07    0.00    0.00    0.00    0.00    0.00     0.06    0.00    0.01    0.00
  125    0.00    0.00    0.03    0.00    0.03    0.00   20.35    1.73    4.91    0.05    0.00    0.00    0.00    0.00    0.00     0.02    0.00    0.00    0.00
  126    0.04    0.00    0.03    0.00    0.02    0.00   19.05    1.45    4.36    0.04    0.00    0.00    0.00    0.00    0.00     0.01    0.00    0.00    0.00
  127    2.92    0.02    0.05    0.00    0.01    0.00   20.05    1.69    2.92    0.09    0.14    0.00    0.00    0.00    0.00     0.10    0.00    0.01    0.00
  128    1.83    0.01    0.05    0.00    0.01    0.00   20.23    1.57    2.91    0.07    0.03    0.00    0.00    0.00    0.00     0.02    0.00    0.00    0.00
  129    2.47    0.08    0.07    0.00    0.01    0.00   20.04    2.41    5.33    0.16    0.65    0.00    0.00    0.00    0.00     0.40    0.00    0.05    0.00
  130    7.36    0.25    0.16    0.00    0.01    0.00   24.89    1.56    1.91    0.41    0.85    0.00    0.00    0.00    0.00     0.67    0.00    0.08    0.00
  131    0.54    0.00    0.11    0.00    0.01    0.00   23.48    1.97    3.14    0.13    0.00    0.00    0.00    0.00    0.00     0.01    0.00    0.00    0.00
  132    0.00    0.00    0.08    0.00    0.01    0.00   21.62    1.99    4.31    0.09    0.00    0.00    0.00    0.00    0.00     0.00    0.00    0.00    0.00
  133    0.00    0.00    0.06    0.00    0.01    0.00   19.99    1.75    4.48    0.07    0.00    0.00    0.00    0.00    0.00     0.00    0.00    0.00    0.00
  134    0.04    0.00    0.05    0.00    0.00    0.00   18.69    1.45    4.06    0.06    0.00    0.00    0.00    0.00    0.00     0.00    0.00    0.00    0.00
  135    0.48    0.00    0.05    0.00    0.00    0.00   17.82    1.46    4.08    0.06    0.00    0.00    0.00    0.00    0.00     0.00    0.00    0.00    0.00
  136    0.00    0.00    0.04    0.00    0.00    0.00   16.70    1.22    3.96    0.05    0.00    0.00    0.00    0.00    0.00     0.00    0.00    0.00    0.00
  137    0.00    0.00    0.04    0.00    0.01    0.00   15.41    1.41    5.22    0.05    0.00    0.00    0.00    0.00    0.00     0.00    0.00    0.00    0.00
  138    0.00    0.00    0.04    0.00    0.00    0.00   14.35    1.17    4.81    0.04    0.00    0.00    0.00    0.00    0.00     0.00    0.00    0.00    0.00
  139    0.00    0.00    0.03    0.00    0.00    0.00   13.19    1.32    5.69    0.04    0.00    0.00    0.00    0.00    0.00     0.00    0.00    0.00    0.00
  140    1.19    0.01    0.04    0.00    0.00    0.00   12.99    1.39    4.92    0.06    0.07    0.00    0.00    0.00    0.02     0.03    0.00    0.00    0.00
  141    7.38    0.23    0.16    0.00    0.01    0.00   17.60    1.76    2.57    0.40    1.13    0.00    0.00    0.00    0.00     0.74    0.00    0.09    0.00
  142   13.53    0.68    0.36    0.00    0.59    0.00   25.79    2.58    2.94    1.02    2.29    0.00    0.00    0.01    0.00     1.62    0.00    0.20    0.00
  143    2.93    0.04    0.25    0.00    0.10    0.00   25.73    2.68    3.20    0.32    0.01    0.00    0.00    0.00    0.01     0.06    0.00    0.01    0.00
  144    0.00    0.00    0.17    0.00    0.00    0.00   23.22    2.65    3.92    0.19    0.00    0.00    0.00    0.00    0.00     0.00    0.00    0.00    0.00
  145    1.80    0.02    0.15    0.00    0.00    0.00   23.22    1.75    2.50    0.18    0.07    0.00    0.00    0.00    0.00     0.03    0.00    0.00    0.00
  146    2.01    0.04    0.15    0.00    0.00    0.00   23.31    1.79    2.57    0.20    0.13    0.00    0.00    0.00    0.02     0.08    0.00    0.01    0.00
  147    1.60    0.02    0.14    0.00    0.00    0.00   22.90    1.97    3.18    0.17    0.12    0.00    0.00    0.00    0.09     0.04    0.00    0.00    0.00
  148    1.36    0.02    0.12    0.00    0.00    0.00   21.90    2.40    3.45    0.15    0.11    0.00    0.00    0.00    0.04     0.04    0.00    0.01    0.00
  149    7.13    0.27    0.22    0.00    0.16    0.00   26.33    1.67    1.82    0.50    1.44    0.00    0.00    0.00    0.24     0.62    0.00    0.08    0.00
  150    3.35    0.09    0.21    0.00    0.21    0.00   27.30    2.11    2.58    0.32    0.07    0.00    0.00    0.00    0.13     0.14    0.00    0.02    0.00
  151    0.00    0.00    0.16    0.00    0.00    0.00   24.93    3.17    4.13    0.17    0.00    0.00    0.00    0.00    0.41     0.00    0.00    0.00    0.00
    5   63.29    2.21    3.30    0.00    1.50    0.00   24.93   57.45  116.32    5.82    8.19    0.01    0.02    0.01    0.96     5.91    0.00    0.72    0.00
  152    0.00    0.00    0.13    0.00    0.00    0.00   21.99    3.39    5.26    0.14    0.00    0.00    0.00    0.00    0.33     0.00    0.00    0.00    0.00
  153    1.50    0.03    0.14    0.00    0.00    0.00   21.65    2.71    4.46    0.18    0.17    0.00    0.00    0.00    0.15     0.06    0.00    0.01    0.00
  154    0.35    0.00    0.13    0.00    0.00    0.00   20.20    2.16    3.99    0.14    0.00    0.00    0.00    0.00    0.08     0.00    0.00    0.00    0.00
  155    0.00    0.00    0.11    0.00    0.00    0.00   17.62    2.85    5.27    0.12    0.00    0.00    0.00    0.00    0.11     0.00    0.00    0.00    0.00
  156    0.00    0.00    0.10    0.00    0.00    0.00   15.11    2.70    5.56    0.10    0.00    0.00    0.00    0.00    0.27     0.00    0.00    0.00    0.00
  157    2.00    0.01    0.10    0.00    0.00    0.00   15.32    2.89    4.44    0.12    0.04    0.00    0.00    0.00    0.15     0.01    0.00    0.00    0.00
  158    0.00    0.00    0.09    0.00    0.00    0.00   12.62    2.91    5.10    0.10    0.00    0.00    0.00    0.00    0.27     0.00    0.00    0.00    0.00
  159    0.00    0.00    0.08    0.00    0.00    0.00   10.45    2.36    5.62    0.09    0.00    0.00    0.00    0.00    0.56     0.00    0.00    0.00    0.00
  160    3.57    0.09    0.08    0.00    0.00    0.00   12.19    3.16    4.09    0.16    0.11    0.00    0.00    0.00    0.87     0.08    0.00    0.01    0.00
  161    5.01    0.08    0.17    0.00    0.01    0.00   15.89    3.13    3.35    0.26    0.44    0.00    0.00    0.00    0.31     0.08    0.00    0.01    0.00
  162   15.41    1.58    0.35    0.00    0.74    0.00   26.96    1.92    2.05    1.66    4.69    0.00    0.00    0.00    0.03     1.41    0.00    0.17    0.00
  163    0.72    0.02    0.26    0.00    0.13    0.00   26.72    3.70    3.95    0.45    0.11    0.00    0.00    0.00    0.10     0.02    0.00    0.00    0.00
  164    0.34    0.00    0.19    0.00    0.07    0.00   26.35    4.27    4.74    0.27    0.01    0.00    0.00    0.00    0.06     0.01    0.00    0.00    0.00
  165    8.74    0.71    0.35    0.00    0.63    0.00   32.19    3.38    3.46    1.04    3.06    0.00    0.00    0.00    0.29     0.63    0.00    0.08    0.00
  166   10.43    0.90    0.52    0.00    0.98    0.00   38.95    1.80    1.82    1.43    2.45    0.00    0.00    0.00    0.28     0.91    0.00    0.11    0.00
  167   12.44    1.59    0.72    0.00    1.28    0.00   46.47    2.38    2.42    2.18    3.87    0.00    0.00    0.00    0.11     1.75    0.00    0.21    0.00
  168    6.31    0.75    0.62    0.00    0.99    0.00   49.97    1.42    1.45    1.35    0.61    0.00    0.00    0.00    0.08     0.32    0.00    0.04    0.00
  169    4.62    0.43    0.56    0.00    1.08    0.00   52.27    2.10    2.17    1.06    1.29    0.00    0.00    0.00    0.04     0.22    0.00    0.03    0.00
  170    1.27    0.04    0.45    0.00    0.40    0.00   52.55    3.08    3.21    0.59    0.26    0.00    0.00    0.00    0.09     0.04    0.00    0.01    0.00
  171    1.95    0.04    0.41    0.00    0.45    0.00   53.49    2.68    2.83    0.50    0.10    0.00    0.00    0.00    0.06     0.02    0.00    0.00    0.00
  172    2.14    0.09    0.38    0.00    0.61    0.00   54.43    2.87    3.04    0.49    0.41    0.00    0.00    0.00    0.04     0.03    0.00    0.00    0.00
  173    3.89    0.27    0.42    0.00    1.01    0.00   56.32    2.00    2.20    0.66    0.59    0.00    0.00    0.01    0.05     0.07    0.00    0.01    0.00
  174    0.46    0.00    0.34    0.00    0.28    0.00   56.19    3.92    4.16    0.38    0.00    0.00    0.00    0.00    0.05     0.00    0.00    0.00    0.00
  175    2.01    0.07    0.33    0.00    0.53    0.00   57.02    2.64    2.85    0.41    0.24    0.00    0.00    0.00    0.05     0.02    0.00    0.00    0.00
  176    0.34    0.00    0.29    0.00    0.16    0.00   56.47    3.87    4.15    0.31    0.00    0.00    0.00    0.00    0.07     0.00    0.00    0.00    0.00
  177    0.57    0.01    0.26    0.00    0.13    0.00   55.83    4.06    4.35    0.28    0.02    0.00    0.00    0.00    0.06     0.00    0.00    0.00    0.00
  178    5.98    0.37    0.40    0.00    1.04    0.00   59.24    2.76    2.82    0.77    2.21    0.00    0.00    0.00    0.05     0.21    0.00    0.03    0.00
  179    3.62    0.20    0.43    0.00    0.91    0.00   60.49    3.71    3.82    0.64    0.29    0.00    0.00    0.00    0.15     0.10    0.00    0.01    0.00
  180    0.84    0.01    0.36    0.00    0.27    0.00   59.59    3.60    3.86    0.39    0.03    0.00    0.00    0.00    0.39     0.01    0.00    0.00    0.00
  181    8.36    1.09    0.56    0.00    1.57    0.00   63.54    3.03    3.15    1.63    4.95    0.00    0.00    0.00    0.24     1.49    0.00    0.18    0.00
    6  102.87    8.37    9.30    0.00   13.26    0.00   63.54   87.47  109.64   17.90   25.95    0.01    0.03    0.02    5.38     7.51    0.00    0.92    0.00
  182   10.39    2.92    0.74    0.00    1.99    0.00   66.62    2.82    3.06    3.36    7.69    0.00    0.00    0.00    0.28     2.33    0.00    0.29    0.00
  183    1.60    0.04    0.56    0.00    0.57    0.00   66.74    3.93    4.05    0.84    0.05    0.00    0.00    0.00    0.14     0.22    0.00    0.03    0.00
  184    6.00    0.87    0.58    0.00    1.12    0.00   69.62    3.11    3.18    1.36    2.11    0.00    0.00    0.00    0.07     0.51    0.00    0.06    0.00
  185    5.59    0.96    0.60    0.00    1.34    0.00   71.90    2.61    2.71    1.54    1.71    0.00    0.00    0.00    0.17     0.61    0.00    0.08    0.00
  186    5.93    0.80    0.61    0.00    1.62    0.00   74.34    3.09    3.16    1.41    0.63    0.00    0.00    0.00    0.08     0.26    0.00    0.03    0.00
  187    0.75    0.01    0.49    0.00    0.42    0.00   74.15    3.85    4.03    0.66    0.05    0.00    0.00    0.00    0.07     0.04    0.00    0.01    0.00
  188    2.33    0.23    0.45    0.00    0.65    0.00   74.97    3.74    3.97    0.71    0.45    0.00    0.00    0.00    0.07     0.08    0.00    0.01    0.00
  189    2.64    0.47    0.44    0.00    0.74    0.00   75.33    4.01    4.30    0.89    0.27    0.00    0.00    0.00    0.13     0.16    0.00    0.02    0.00
  190    0.00    0.00    0.36    0.00    0.17    0.00   73.04    4.94    5.30    0.43    0.00    0.00    0.00    0.00    0.08     0.02    0.00    0.00    0.00
  191    6.33    0.84    0.48    0.00    1.07    0.00   76.41    2.01    2.06    1.19    1.47    0.00    0.00    0.00    0.07     0.32    0.00    0.04    0.00
  192    8.08    2.19    0.65    0.00    1.60    0.00   79.30    2.65    2.71    2.52    1.88    0.00    0.00    0.00    0.08     1.61    0.00    0.20    0.00
  193    4.95    0.70    0.68    0.00    1.44    0.00   80.95    2.51    2.57    1.63    0.82    0.00    0.00    0.00    0.07     0.82    0.00    0.10    0.00
  194    3.11    0.46    0.60    0.00    1.00    0.00   81.60    3.18    3.34    1.16    0.58    0.00    0.00    0.00    0.06     0.38    0.00    0.05    0.00
  195    0.42    0.00    0.45    0.00    0.40    0.00   80.60    4.10    4.34    0.57    0.00    0.00    0.00    0.00    0.06     0.08    0.00    0.01    0.00
  196    0.00    0.00    0.37    0.00    0.23    0.00   78.30    5.41    5.82    0.41    0.00    0.00    0.00    0.00    0.08     0.02    0.00    0.00    0.00
  197    5.48    0.65    0.51    0.00    0.95    0.00   81.19    3.07    3.17    1.10    1.61    0.00    0.00    0.00    0.09     0.44    0.00    0.05    0.00
  198    8.33    2.15    0.61    0.00    1.90    0.00   84.11    3.15    3.32    2.51    2.33    0.00    0.00    0.00    0.09     1.03    0.00    0.13    0.00
  199    4.18    0.65    0.61    0.00    1.36    0.00   85.35    2.76    2.83    1.38    0.95    0.00    0.00    0.00    0.08     0.36    0.00    0.04    0.00
  200   20.79    9.10    1.09    0.00    4.52    0.00   89.51    1.82    1.85    8.86   12.73    0.00    0.00    0.01    0.06     4.71    0.00    0.58    0.00
  201    5.73    1.38    0.90    0.00    2.18    0.00   90.51    3.11    3.18    3.11    0.03    0.00    0.00    0.00    0.06     1.11    0.00    0.14    0.00
  202    3.48    0.49    0.77    0.00    1.45    0.00   91.15    3.34    3.47    1.70    0.79    0.00    0.00    0.00    0.06     0.48    0.00    0.06    0.00
  203    0.00    0.00    0.57    0.00    0.53    0.00   90.26    4.38    4.57    0.79    0.00    0.00    0.00    0.00    0.06     0.09    0.00    0.01    0.00
  204    0.00    0.00    0.46    0.00    0.43    0.00   88.70    4.98    5.24    0.55    0.00    0.00    0.00    0.00    0.06     0.03    0.00    0.00    0.00
  205    0.00    0.00    0.39    0.00    0.43    0.00   85.80    5.04    5.41    0.43    0.00    0.00    0.00    0.00    0.06     0.01    0.00    0.00    0.00
  206    0.00    0.00    0.34    0.00    0.44    0.00   80.98    4.96    5.46    0.36    0.00    0.00    0.00    0.00    0.06     0.00    0.00    0.00    0.00
  207    1.56    0.10    0.31    0.00    0.44    0.00   79.43    3.95    4.36    0.41    0.12    0.00    0.00    0.00    0.06     0.02    0.00    0.00    0.00
  208    0.54    0.01    0.29    0.00    0.46    0.00   76.63    3.64    4.08    0.32    0.00    0.00    0.00    0.00    0.06     0.00    0.00    0.00    0.00
  209    0.58    0.05    0.26    0.00    0.44    0.00   73.19    4.07    4.57    0.31    0.03    0.00    0.00    0.00    0.06     0.01    0.00    0.00    0.00
  210    2.90    0.38    0.28    0.00    0.43    0.00   73.48    3.00    3.44    0.58    0.61    0.00    0.00    0.00    0.06     0.06    0.00    0.01    0.00
  211    6.71    1.16    0.35    0.00    0.56    0.00   77.73    2.20    2.37    1.31    1.23    0.00    0.00    0.00    0.05     0.24    0.00    0.03    0.00
  212    1.22    0.03    0.33    0.00    0.52    0.00   77.78    3.48    3.61    0.56    0.07    0.00    0.00    0.00    0.06     0.03    0.00    0.00    0.00
    7  119.65   26.63   16.14    0.00   31.37    0.00   77.78  108.89  115.55   42.96   38.21    0.02    0.03    0.03    2.56    16.08    0.01    1.98    0.00
  213    0.91    0.03    0.28    0.00    0.43    0.00   76.63    3.70    3.96    0.39    0.06    0.00    0.00    0.00    0.06     0.01    0.00    0.00    0.00
  214    0.00    0.00    0.24    0.00    0.39    0.00   73.52    4.69    5.13    0.28    0.00    0.00    0.00    0.00    0.06     0.00    0.00    0.00    0.00
  215    2.74    0.34    0.26    0.00    0.58    0.00   73.03    3.58    4.02    0.61    1.48    0.00    0.00    0.00    0.06     0.16    0.00    0.02    0.00
  216   13.15    3.85    0.42    0.00    1.58    0.00   79.16    3.19    3.45    3.59    4.41    0.00    0.00    0.00    0.05     1.67    0.00    0.21    0.00
  217    5.01    0.86    0.43    0.00    1.56    0.00   80.56    4.13    4.42    1.66    0.77    0.00    0.00    0.00    0.06     0.59    0.00    0.07    0.00
  218    1.20    0.04    0.34    0.00    0.77    0.00   79.67    3.84    4.11    0.61    0.12    0.00    0.00    0.00    0.08     0.09    0.00    0.01    0.00
  219    4.53    0.52    0.41    0.00    1.22    0.00   81.52    2.75    2.97    1.00    1.60    0.00    0.00    0.00    0.07     0.23    0.00    0.03    0.00
  220    4.12    0.51    0.46    0.00    1.17    0.00   82.82    2.26    2.35    0.98    0.65    0.00    0.00    0.00    0.06     0.24    0.00    0.03    0.00
  221    2.63    0.28    0.41    0.00    1.16    0.00   83.19    2.95    3.16    0.70    0.17    0.00    0.00    0.00    0.06     0.11    0.00    0.01    0.00
  222    1.21    0.04    0.35    0.00    0.79    0.00   82.40    3.60    3.85    0.45    0.20    0.00    0.00    0.00    0.06     0.02    0.00    0.00    0.00
  223    1.10    0.02    0.34    0.00    0.65    0.00   80.95    3.54    3.85    0.39    0.16    0.00    0.00    0.00    0.06     0.01    0.00    0.00    0.00
  224    0.00    0.00    0.28    0.00    0.39    0.00   77.82    4.40    4.85    0.30    0.00    0.00    0.00    0.00    0.05     0.00    0.00    0.00    0.00
  225    0.00    0.00    0.24    0.00    0.36    0.00   73.96    4.62    5.32    0.26    0.00    0.00    0.00    0.00    0.05     0.00    0.00    0.00    0.00
  226    2.50    0.12    0.25    0.00    0.43    0.00   74.37    3.33    3.60    0.38    0.58    0.00    0.00    0.00    0.05     0.03    0.00    0.00    0.00
  227    2.09    0.10    0.25    0.00    0.51    0.00   74.25    2.93    3.09    0.36    0.31    0.00    0.00    0.00    0.05     0.02    0.00    0.00    0.00
  228    2.90    0.45    0.27    0.00    0.85    0.00   73.50    3.62    3.92    0.68    0.54    0.00    0.00    0.00    0.05     0.15    0.00    0.02    0.00
  229    9.67    2.10    0.39    0.00    1.34    0.00   78.03    2.24    2.30    2.22    4.81    0.00    0.00    0.00    0.05     0.77    0.00    0.09    0.00
  230    7.52    1.32    0.49    0.00    1.47    0.00   81.19    2.29    2.35    1.88    2.17    0.00    0.00    0.00    0.05     0.64    0.00    0.08    0.00
  231    4.17    0.35    0.45    0.00    1.35    0.00   82.36    2.27    2.31    0.94    0.27    0.00    0.00    0.00    0.04     0.14    0.00    0.02    0.00
  232    7.68    3.30    0.50    0.00    2.07    0.00   82.46    3.23    3.34    3.49    6.06    0.00    0.00    0.00    0.04     1.42    0.00    0.18    0.00
  233    0.11    0.00    0.36    0.00    0.63    0.00   79.51    4.86    5.13    0.71    0.00    0.00    0.00    0.00    0.04     0.12    0.00    0.02    0.00
  234    7.93    1.96    0.41    0.00    1.56    0.00   81.06    4.12    4.36    2.17    3.96    0.00    0.00    0.00    0.05     0.60    0.00    0.07    0.00
  235    7.35    1.97    0.48    0.00    1.86    0.00   82.70    2.81    2.92    2.40    2.83    0.00    0.00    0.00    0.04     0.70    0.00    0.09    0.00
  236    2.45    0.15    0.41    0.00    0.85    0.00   83.07    3.09    3.15    0.85    0.66    0.00    0.00    0.00    0.04     0.09    0.00    0.01    0.00
  237   14.73    4.93    0.82    0.00    3.04    0.00   86.82    2.25    2.36    5.37   10.36    0.00    0.00    0.00    0.04     2.57    0.00    0.32    0.00
  238    0.97    0.02    0.57    0.00    0.90    0.00   85.09    2.97    3.16    0.97    0.00    0.00    0.00    0.00    0.03     0.13    0.00    0.02    0.00
  239    0.00    0.00    0.42    0.00    0.45    0.00   82.23    3.80    4.15    0.54    0.00    0.00    0.00    0.00    0.04     0.03    0.00    0.00    0.00
  240    4.04    0.53    0.41    0.00    0.89    0.00   83.64    1.98    2.03    0.92    0.97    0.00    0.00    0.00    0.04     0.15    0.00    0.02    0.00
  241    6.28    1.34    0.44    0.00    1.41    0.00   85.74    1.68    1.72    1.63    1.59    0.00    0.00    0.00    0.03     0.38    0.00    0.05    0.00
  242    5.26    1.02    0.45    0.00    1.69    0.00   86.68    2.44    2.58    1.47    0.75    0.00    0.00    0.00    0.03     0.41    0.00    0.05    0.00
  243    0.52    0.01    0.36    0.00    0.76    0.00   84.54    3.39    3.66    0.55    0.02    0.00    0.00    0.00    0.03     0.05    0.00    0.01    0.00
    8  122.77   26.18   12.19    0.00   33.12    0.00   84.54  100.56  107.59   38.73   45.50    0.02    0.01    0.02    1.53    11.54    0.01    1.42    0.00
  244    2.32    0.28    0.34    0.00    0.68    0.00   83.63    3.32    3.55    0.70    1.21    0.00    0.00    0.00    0.04     0.42    0.00    0.05    0.00
  245    3.84    0.46    0.38    0.00    0.83    0.00   84.34    2.15    2.27    0.83    0.77    0.00    0.00    0.00    0.03     0.34    0.00    0.04    0.00
  246    0.73    0.01    0.31    0.00    0.59    0.00   82.69    2.61    2.87    0.37    0.00    0.00    0.00    0.00    0.03     0.03    0.00    0.00    0.00
  247    0.00    0.00    0.26    0.00    0.45    0.00   80.10    3.19    3.58    0.29    0.00    0.00    0.00    0.00    0.03     0.01    0.00    0.00    0.00
  248    5.52    0.75    0.32    0.00    0.76    0.00   82.89    1.20    1.37    0.96    1.06    0.00    0.00    0.00    0.03     0.21    0.00    0.03    0.00
  249    1.79    0.08    0.28    0.00    0.74    0.00   82.54    2.17    2.32    0.45    0.00    0.00    0.00    0.00    0.03     0.03    0.00    0.00    0.00
  250    1.19    0.07    0.25    0.00    0.70    0.00   81.18    2.25    2.58    0.36    0.07    0.00    0.00    0.00    0.03     0.01    0.00    0.00    0.00
  251    9.28    2.25    0.40    0.00    1.94    0.00   84.45    1.23    1.35    2.48    5.42    0.00    0.00    0.00    0.03     2.86    0.00    0.35    0.00
  252   11.65    4.66    0.61    0.00    2.91    0.00   86.42    1.48    1.61    4.87    8.22    0.00    0.00    0.01    0.03     3.86    0.00    0.47    0.00
  253    1.67    0.18    0.44    0.00    1.02    0.00   85.37    2.67    2.82    1.06    0.26    0.00    0.00    0.00    0.03     0.38    0.00    0.05    0.00
  254    5.62    1.11    0.46    0.00    1.48    0.00   86.85    1.59    1.64    1.50    0.89    0.00    0.00    0.00    0.02     1.01    0.00    0.12    0.00
  255    8.75    2.48    0.57    0.00    2.46    0.00   88.80    1.39    1.49    2.80    2.26    0.00    0.00    0.01    0.00     1.29    0.00    0.16    0.00
  256    0.71    0.02    0.43    0.00    0.85    0.00   87.30    2.66    2.78    0.82    0.00    0.00    0.00    0.00    0.00     0.16    0.00    0.02    0.00
  257    0.00    0.00    0.34    0.00    0.52    0.00   84.91    2.88    3.16    0.47    0.00    0.00    0.00    0.00    0.02     0.04    0.00    0.01    0.00
  258    0.13    0.00    0.28    0.00    0.48    0.00   82.11    2.84    3.16    0.34    0.00    0.00    0.00    0.00    0.01     0.01    0.00    0.00    0.00
  259    5.16    0.87    0.34    0.00    0.89    0.00   84.19    1.60    1.65    1.11    1.07    0.00    0.00    0.00    0.00     0.39    0.00    0.05    0.00
  260    0.00    0.00    0.27    0.00    0.52    0.00   82.20    2.37    2.62    0.38    0.00    0.00    0.00    0.00    0.00     0.07    0.00    0.01    0.00
  261    0.00    0.00    0.23    0.00    0.46    0.00   79.87    2.85    3.24    0.27    0.00    0.00    0.00    0.00    0.00     0.02    0.00    0.00    0.00
  262    0.00    0.00    0.20    0.00    0.45    0.00   77.29    2.62    3.05    0.23    0.00    0.00    0.00    0.00    0.00     0.01    0.00    0.00    0.00
  263    0.00    0.00    0.19    0.00    0.44    0.00   74.26    2.72    3.23    0.20    0.00    0.00    0.00    0.00    0.00     0.00    0.00    0.00    0.00
  264    0.00    0.00    0.17    0.00    0.43    0.00   71.12    2.84    3.47    0.19    0.00    0.00    0.00    0.00    0.24     0.00    0.00    0.00    0.00
  265    0.00    0.00    0.16    0.00    0.42    0.00   68.03    2.81    3.53    0.17    0.00    0.00    0.00    0.00    0.03     0.00    0.00    0.00    0.00
  266    0.00    0.00    0.15    0.00    0.39    0.00   64.88    2.90    3.70    0.16    0.00    0.00    0.00    0.00    0.05     0.00    0.00    0.00    0.00
  267    5.33    0.42    0.22    0.00    0.37    0.00   68.01    1.86    1.95    0.63    1.57    0.00    0.00    0.00    0.03     0.41    0.00    0.05    0.00
  268    5.60    0.73    0.27    0.00    0.61    0.00   70.86    1.60    1.66    0.97    1.08    0.00    0.00    0.00    0.03     0.87    0.00    0.11    0.00
  269    7.41    1.32    0.33    0.00    0.78    0.00   74.81    1.35    1.45    1.52    1.70    0.00    0.00    0.00    0.00     0.71    0.00    0.09    0.00
  270    4.77    0.62    0.32    0.00    1.11    0.00   76.73    1.14    1.26    0.98    0.26    0.00    0.00    0.00    0.01     0.16    0.00    0.02    0.00
  271    1.44    0.03    0.27    0.00    0.58    0.00   76.74    1.76    1.89    0.43    0.05    0.00    0.00    0.00    0.03     0.02    0.00    0.00    0.00
  272    1.81    0.27    0.23    0.00    0.71    0.00   76.10    2.35    2.50    0.48    0.17    0.00    0.00    0.00    0.08     0.02    0.00    0.00    0.00
  273    4.38    0.51    0.26    0.00    1.21    0.00   77.51    1.60    1.67    0.74    0.50    0.00    0.00    0.00    0.03     0.17    0.00    0.02    0.00
    9   89.11   17.13    9.28    0.00   25.78    0.00   77.51   66.02   73.42   26.77   26.58    0.02    0.01    0.05    0.89    13.51    0.00    1.66    0.00
  274    1.05    0.04    0.23    0.00    0.59    0.00   76.94    1.52    1.65    0.37    0.02    0.00    0.00    0.00    0.03     0.04    0.00    0.01    0.00
  275    2.58    0.15    0.27    0.00    0.57    0.00   77.28    1.89    1.96    0.46    0.70    0.00    0.00    0.00    0.03     0.09    0.00    0.01    0.00
  276    8.99    2.26    0.42    0.00    1.71    0.00   80.72    0.81    0.83    2.37    3.68    0.00    0.00    0.00    0.03     0.84    0.00    0.10    0.00
  277    0.95    0.11    0.33    0.00    0.63    0.00   79.54    2.13    2.20    0.68    0.04    0.00    0.00    0.00    0.02     0.12    0.00    0.01    0.00
  278    4.17    0.56    0.36    0.00    0.95    0.00   80.83    1.49    1.54    0.94    1.03    0.00    0.00    0.00    0.02     0.46    0.00    0.06    0.00
  279    2.16    0.10    0.32    0.00    0.66    0.00   81.01    1.51    1.57    0.52    0.03    0.00    0.00    0.00    0.00     0.17    0.00    0.02    0.00
  280    4.68    0.54    0.35    0.00    1.18    0.00   82.96    0.76    0.79    0.85    0.89    0.00    0.00    0.00    0.00     0.16    0.00    0.02    0.00
  281    2.69    0.12    0.34    0.00    0.99    0.00   83.84    0.51    0.53    0.55    0.17    0.00    0.00    0.00    0.00     0.10    0.00    0.01    0.00
  282    4.76    0.75    0.37    0.00    1.58    0.00   85.28    0.57    0.58    1.01    0.82    0.00    0.00    0.00    0.00     0.18    0.00    0.02    0.00
  283    1.87    0.11    0.33    0.00    0.87    0.00   85.18    1.16    1.20    0.56    0.31    0.00    0.00    0.00    0.00     0.08    0.00    0.01    0.00
  284    2.23    0.15    0.32    0.00    0.62    0.00   85.73    0.98    1.01    0.53    0.46    0.00    0.00    0.00    0.00     0.12    0.00    0.01    0.00
  285    1.16    0.07    0.30    0.00    0.36    0.00   85.59    1.27    1.32    0.40    0.17    0.00    0.00    0.00    0.00     0.09    0.00    0.01    0.00
  286    0.00    0.00    0.25    0.00    0.17    0.00   84.35    1.68    1.77    0.27    0.00    0.00    0.00    0.00    0.00     0.01    0.00    0.00    0.00
  287    1.12    0.05    0.23    0.00    0.11    0.00   84.41    1.22    1.32    0.30    0.19    0.00    0.00    0.00    0.00     0.01    0.00    0.00    0.00
  288    0.34    0.02    0.20    0.00    0.08    0.00   83.59    1.43    1.56    0.24    0.00    0.00    0.00    0.00    0.00     0.01    0.00    0.00    0.00
  289    0.00    0.00    0.18    0.00    0.07    0.00   82.34    1.69    1.88    0.20    0.00    0.00    0.00    0.00    0.00     0.00    0.00    0.00    0.00
  290    0.00    0.00    0.16    0.00    0.07    0.00   81.09    1.46    1.66    0.18    0.00    0.00    0.00    0.00    0.00     0.00    0.00    0.00    0.00
  291    0.00    0.00    0.15    0.00    0.07    0.00   79.56    1.58    1.82    0.16    0.00    0.00    0.00    0.00    0.00     0.00    0.00    0.00    0.00
  292    0.00    0.00    0.14    0.00    0.07    0.00   78.04    1.51    1.76    0.15    0.00    0.00    0.00    0.00    0.00     0.00    0.00    0.00    0.00
  293    0.62    0.02    0.13    0.00    0.07    0.00   77.60    1.29    1.50    0.17    0.04    0.00    0.00    0.00    0.00     0.01    0.00    0.00    0.00
  294    0.00    0.00    0.12    0.00    0.07    0.00   76.29    1.37    1.61    0.14    0.00    0.00    0.00    0.00    0.00     0.00    0.00    0.00    0.00
  295    1.42    0.23    0.13    0.00    0.07    0.00   76.04    1.35    1.55    0.36    0.78    0.00    0.00    0.00    0.00     0.26    0.00    0.03    0.00
  296    3.58    0.13    0.12    0.00    0.06    0.00   76.22    0.62    0.76    0.27    0.27    0.00    0.00    0.00    0.00     0.73    0.00    0.09    0.00
  297    0.00    0.00    0.11    0.00    0.06    0.00   75.33    0.97    1.14    0.13    0.00    0.00    0.00    0.00    0.00     0.01    0.00    0.00    0.00
  298    0.00    0.10    0.10    0.00    0.06    0.00   74.74    0.97    1.18    0.21    0.17    0.00    0.00    0.00    0.00     0.03    0.00    0.00    0.00
  299    0.04    0.95    0.09    0.00    0.06    0.00   74.81    1.30    1.52    0.93    2.43    0.00    0.00    0.00    0.00     0.37    0.00    0.04    0.00
  300    0.29    0.03    0.09    0.00    0.05    0.00   74.23    1.06    1.25    0.21    0.01    0.00    0.00    0.00    0.00     0.08    0.00    0.01    0.00
  301    1.36    0.00    0.08    0.00    0.02    0.00   74.06    0.34    0.44    0.13    0.00    0.00    0.00    0.00    0.00     0.02    0.00    0.00    0.00
  302    0.32    0.00    0.08    0.00    0.01    0.00   73.89    0.48    0.67    0.10    0.00    0.00    0.00    0.00    0.00     0.02    0.00    0.00    0.00
  303    0.18    0.07    0.07    0.00    0.00    0.00   74.04    0.65    0.83    0.15    0.08    0.00    0.00    0.00    0.00     0.31    0.00    0.04    0.00
  304    0.86    0.00    0.07    0.00    0.00    0.00   73.83    0.52    0.69    0.09    0.00    0.00    0.00    0.00    0.00     0.03    0.00    0.00    0.00
   10   47.42    6.57    6.40    0.00   11.87    0.00   73.83   36.09   40.06   13.63   12.33    0.01    0.01    0.03    0.13     4.36    0.00    0.54    0.00
  305    0.34    0.00    0.06    0.00    0.00    0.00   73.66    0.47    0.62    0.08    0.00    0.00    0.00    0.00    0.00     0.01    0.00    0.00    0.00
  306    0.00    0.21    0.06    0.00    0.00    0.00   73.82    0.32    0.41    0.24    0.06    0.00    0.00    0.00    0.00     0.21    0.00    0.03    0.00
  307    0.00    0.01    0.06    0.00    0.00    0.00   73.83    0.50    0.62    0.12    0.01    0.00    0.00    0.00    0.00     0.09    0.00    0.01    0.00
  308    0.00    0.00    0.05    0.00    0.00    0.00   73.49    0.49    0.63    0.08    0.00    0.00    0.00    0.00    0.00     0.02    0.00    0.00    0.00
  309    0.00    0.00    0.05    0.00    0.00    0.00   73.29    0.34    0.48    0.07    0.00    0.00    0.00    0.00    0.00     0.01    0.00    0.00    0.00
  310    0.00    0.00    0.05    0.00    0.00    0.00   73.01    0.46    0.60    0.07    0.00    0.00    0.00    0.00    0.00     0.00    0.00    0.00    0.00
  311    0.00    0.00    0.05    0.00    0.00    0.00   72.54    0.72    0.85    0.06    0.00    0.00    0.00    0.00    0.00     0.00    0.00    0.00    0.00
  312    0.00    0.00    0.04    0.00    0.00    0.00   71.87    0.73    0.89    0.06    0.00    0.00    0.00    0.00    0.00     0.00    0.00    0.00    0.00
  313    0.00    0.00    0.04    0.00    0.00    0.00   71.33    0.59    0.76    0.06    0.00    0.00    0.00    0.00    0.00     0.00    0.00    0.00    0.00
  314    0.00    0.00    0.04    0.00    0.00    0.00   70.74    0.64    0.85    0.06    0.00    0.00    0.00    0.00    0.00     0.00    0.00    0.00    0.00
  315    0.00    0.00    0.04    0.00    0.00    0.00   70.30    0.49    0.67    0.05    0.00    0.00    0.00    0.00    0.00     0.00    0.00    0.00    0.00
  316    0.00    0.00    0.03    0.00    0.00    0.00   69.71    0.70    0.94    0.05    0.00    0.00    0.00    0.00    0.00     0.00    0.00    0.00    0.00
  317    0.00    0.00    0.03    0.00    0.00    0.00   69.18    0.67    0.92    0.05    0.00    0.00    0.00    0.00    0.00     0.00    0.00    0.00    0.00
  318    0.00    0.00    0.03    0.00    0.00    0.00   68.61    0.66    0.93    0.05    0.00    0.00    0.00    0.00    0.00     0.00    0.00    0.00    0.00
  319    0.00    0.00    0.03    0.00    0.00    0.00   68.04    0.66    0.93    0.05    0.00    0.00    0.00    0.00    0.00     0.00    0.00    0.00    0.00
  320    0.00    0.00    0.03    0.00    0.00    0.00   67.58    0.52    0.76    0.05    0.00    0.00    0.00    0.00    0.00     0.00    0.00    0.00    0.00
  321    0.00    0.00    0.03    0.00    0.00    0.00   67.10    0.56    0.83    0.05    0.00    0.00    0.00    0.00    0.00     0.00    0.00    0.00    0.00
  322    0.00    0.00    0.03    0.00    0.00    0.00   66.66    0.60    0.88    0.04    0.00    0.00    0.00    0.00    0.00     0.00    0.00    0.00    0.00
  323    0.00    0.00    0.02    0.00    0.00    0.00   66.25    0.49    0.72    0.04    0.00    0.00    0.00    0.00    0.00     0.00    0.00    0.00    0.00
  324    0.00    0.00    0.02    0.00    0.00    0.00   65.80    0.51    0.78    0.04    0.00    0.00    0.00    0.00    0.00     0.00    0.00    0.00    0.00
  325    0.00    0.00    0.02    0.00    0.00    0.00   65.36    0.56    0.85    0.04    0.00    0.00    0.00    0.00    0.00     0.00    0.00    0.00    0.00
  326    0.00    0.00    0.02    0.00    0.00    0.00   64.95    0.47    0.75    0.04    0.00    0.00    0.00    0.00    0.00     0.00    0.00    0.00    0.00
  327    0.00    0.00    0.02    0.00    0.00    0.00   64.50    0.50    0.81    0.04    0.00    0.00    0.00    0.00    0.00     0.00    0.00    0.00    0.00
  328    0.26    0.06    0.02    0.00    0.00    0.00   64.10    0.72    1.07    0.08    0.02    0.00    0.00    0.00    0.00     0.08    0.00    0.01    0.00
  329    0.48    0.00    0.02    0.00    0.00    0.00   63.67    0.50    0.79    0.05    0.00    0.00    0.00    0.00    0.00     0.02    0.00    0.00    0.00
  330    0.00    0.00    0.02    0.00    0.00    0.00   63.32    0.41    0.63    0.04    0.00    0.00    0.00    0.00    0.00     0.01    0.00    0.00    0.00
  331    0.04    0.00    0.02    0.00    0.00    0.00   63.08    0.38    0.54    0.04    0.00    0.00    0.00    0.00    0.00     0.00    0.00    0.00    0.00
  332    0.04    0.00    0.02    0.00    0.00    0.00   62.84    0.29    0.46    0.04    0.00    0.00    0.00    0.00    0.00     0.00    0.00    0.00    0.00
  333    0.23    0.00    0.02    0.00    0.00    0.00   62.67    0.43    0.57    0.03    0.00    0.00    0.00    0.00    0.00     0.00    0.00    0.00    0.00
  334    0.00    0.00    0.01    0.00    0.00    0.00   62.44    0.26    0.40    0.03    0.00    0.00    0.00    0.00    0.00     0.00    0.00    0.00    0.00
   11    1.39    0.28    0.98    0.00    0.00    0.00   62.44   15.62   21.93    1.81    0.10    0.00    0.00    0.00    0.00     0.45    0.00    0.06    0.00
  335    0.00    0.00    0.01    0.00    0.00    0.00   62.16    0.43    0.61    0.03    0.00    0.00    0.00    0.00    0.00     0.00    0.00    0.00    0.00
  336    0.00    0.00    0.01    0.00    0.00    0.00   61.86    0.38    0.57    0.03    0.00    0.00    0.00    0.00    0.00     0.00    0.00    0.00    0.00
  337    0.00    0.00    0.01    0.00    0.00    0.00   61.65    0.24    0.37    0.03    0.00    0.00    0.00    0.00    0.00     0.00    0.00    0.00    0.00
  338    0.00    0.00    0.01    0.00    0.00    0.00   61.42    0.25    0.38    0.03    0.00    0.00    0.00    0.00    0.00     0.00    0.00    0.00    0.00
  339    0.00    0.00    0.01    0.00    0.00    0.00   61.17    0.27    0.42    0.03    0.00    0.00    0.00    0.00    0.00     0.00    0.00    0.00    0.00
  340    0.00    0.00    0.01    0.00    0.00    0.00   60.93    0.27    0.41    0.03    0.00    0.00    0.00    0.00    0.00     0.00    0.00    0.00    0.00
  341    0.00    0.00    0.01    0.00    0.00    0.00   60.73    0.24    0.41    0.03    0.00    0.00    0.00    0.00    0.00     0.00    0.00    0.00    0.00
  342    0.00    0.00    0.01    0.00    0.00    0.00   60.50    0.25    0.42    0.03    0.00    0.00    0.00    0.00    0.00     0.00    0.00    0.00    0.00
  343    0.00    0.00    0.01    0.00    0.00    0.00   60.07    0.47    0.80    0.03    0.00    0.00    0.00    0.00    0.00     0.00    0.00    0.00    0.00
  344    0.00    0.00    0.01    0.00    0.00    0.00   59.77    0.31    0.51    0.03    0.00    0.00    0.00    0.00    0.00     0.00    0.00    0.00    0.00
  345    0.00    0.00    0.01    0.00    0.00    0.00   59.53    0.27    0.48    0.03    0.00    0.00    0.00    0.00    0.00     0.00    0.00    0.00    0.00
  346    0.37    0.00    0.01    0.00    0.00    0.00   59.39    0.20    0.32    0.03    0.00    0.00    0.00    0.00    0.00     0.00    0.00    0.00    0.00
  347    0.00    0.00    0.01    0.00    0.00    0.00   59.23    0.20    0.34    0.03    0.00    0.00    0.00    0.00    0.00     0.00    0.00    0.00    0.00
  348    0.00    0.00    0.01    0.00    0.00    0.00   59.09    0.16    0.29    0.03    0.00    0.00    0.00    0.00    0.00     0.00    0.00    0.00    0.00
  349    0.00    0.00    0.01    0.00    0.00    0.00   58.93    0.26    0.42    0.03    0.00    0.00    0.00    0.00    0.00     0.00    0.00    0.00    0.00
  350    0.35    0.00    0.01    0.00    0.00    0.00   58.75    0.36    0.53    0.03    0.00    0.00    0.00    0.00    0.00     0.00    0.00    0.00    0.00
  351    0.00    0.00    0.01    0.00    0.00    0.00   58.56    0.29    0.45    0.03    0.00    0.00    0.00    0.00    0.00     0.00    0.00    0.00    0.00
  352    0.00    0.00    0.01    0.00    0.00    0.00   58.22    0.39    0.68    0.03    0.00    0.00    0.00    0.00    0.00     0.00    0.00    0.00    0.00
  353    0.00    0.00    0.01    0.00    0.00    0.00   57.82    0.43    0.86    0.03    0.00    0.00    0.00    0.00    0.00     0.00    0.00    0.00    0.00
  354    0.00    0.00    0.01    0.00    0.00    0.00   57.56    0.28    0.59    0.03    0.00    0.00    0.00    0.00    0.00     0.00    0.00    0.00    0.00
  355    0.00    0.00    0.01    0.00    0.00    0.00   57.36    0.23    0.46    0.03    0.00    0.00    0.00    0.00    0.00     0.00    0.00    0.00    0.00
  356    0.00    0.00    0.01    0.00    0.00    0.00   57.13    0.25    0.52    0.02    0.00    0.00    0.00    0.00    0.00     0.00    0.00    0.00    0.00
  357    0.00    0.00    0.01    0.00    0.00    0.00   56.92    0.23    0.48    0.02    0.00    0.00    0.00    0.00    0.00     0.00    0.00    0.00    0.00
  358    0.00    0.00    0.01    0.00    0.00    0.00   56.78    0.17    0.35    0.02    0.00    0.00    0.00    0.00    0.00     0.00    0.00    0.00    0.00
  359    0.00    0.00    0.01    0.00    0.00    0.00   56.59    0.22    0.45    0.02    0.00    0.00    0.00    0.00    0.00     0.00    0.00    0.00    0.00
  360    0.03    0.00    0.01    0.00    0.00    0.00   56.50    0.12    0.24    0.02    0.00    0.00    0.00    0.00    0.00     0.00    0.00    0.00    0.00
  361    0.22    0.00    0.01    0.00    0.00    0.00   56.35    0.16    0.38    0.02    0.00    0.00    0.00    0.00    0.00     0.00    0.00    0.00    0.00
  362    0.00    0.00    0.00    0.00    0.00    0.00   56.25    0.12    0.27    0.02    0.00    0.00    0.00    0.00    0.00     0.00    0.00    0.00    0.00
  363    0.00    0.00    0.00    0.00    0.00    0.00   56.14    0.13    0.30    0.02    0.00    0.00    0.00    0.00    0.00     0.00    0.00    0.00    0.00
  364    0.00    0.00    0.00    0.00    0.00    0.00   55.96    0.19    0.46    0.02    0.00    0.00    0.00    0.00    0.00     0.00    0.00    0.00    0.00
  365    0.00    0.00    0.00    0.00    0.00    0.00   55.84    0.14    0.33    0.02    0.00    0.00    0.00    0.00    0.00     0.00    0.00    0.00    0.00
   12    0.97    0.00    0.26    0.00    0.00    0.00   55.84    7.91   14.11    0.84    0.00    0.00    0.00    0.00    0.00     0.00    0.00    0.00    0.00

 2007  604.57  103.77   59.02    0.00  117.06    0.00   55.84  546.33  727.00  167.58  167.48    0.17    0.12    0.17   11.46    76.96    0.03    9.45    0.00
1
    SWAT Dec 11 2014    VER 2012/Rev 635                                            

    General Input/Output section (file.cio):                                        
    2020/2/22 0:00:00 ARCGIS-SWAT interface AV                                      
                                                                                    
Annual Summary for Watershed in year    4 of simulation

UNIT                                    PERCO    TILE                           WATER     SED     NO3     NO3     NO3     NO3        N       P       P
TIME     PREC    SURQ    LATQ     GWQ    LATE       Q     SW       ET     PET   YIELD   YIELD    SURQ    LATQ    PERC    CROP  ORGANIC SOLUBLE ORGANIC TILENO3
         (mm)    (mm)    (mm)    (mm)    (mm)    (mm)    (mm)    (mm)    (mm)    (mm)    (mm)   ------------------(kg nutrient/ha)-------------------- (kg/ha)
    1    0.00    0.00    0.00    0.00    0.00    0.00   55.77    0.10    0.23    0.02    0.00    0.00    0.00    0.00    0.00     0.00    0.00    0.00    0.00
    2    0.00    0.00    0.00    0.00    0.00    0.00   55.60    0.20    0.46    0.02    0.00    0.00    0.00    0.00    0.00     0.00    0.00    0.00    0.00
    3    0.00    0.00    0.00    0.00    0.00    0.00   55.48    0.14    0.32    0.02    0.00    0.00    0.00    0.00    0.00     0.00    0.00    0.00    0.00
    4    0.00    0.00    0.00    0.00    0.00    0.00   55.32    0.19    0.45    0.02    0.00    0.00    0.00    0.00    0.00     0.00    0.00    0.00    0.00
    5    0.00    0.00    0.00    0.00    0.00    0.00   55.20    0.14    0.33    0.02    0.00    0.00    0.00    0.00    0.00     0.00    0.00    0.00    0.00
    6    0.00    0.00    0.00    0.00    0.00    0.00   54.94    0.29    0.71    0.02    0.00    0.00    0.00    0.00    0.00     0.00    0.00    0.00    0.00
    7    0.00    0.00    0.00    0.00    0.00    0.00   54.81    0.15    0.38    0.02    0.00    0.00    0.00    0.00    0.00     0.00    0.00    0.00    0.00
    8    0.00    0.00    0.00    0.00    0.00    0.00   54.64    0.19    0.47    0.02    0.00    0.00    0.00    0.00    0.00     0.00    0.00    0.00    0.00
    9    0.00    0.00    0.00    0.00    0.00    0.00   54.52    0.15    0.37    0.02    0.00    0.00    0.00    0.00    0.00     0.00    0.00    0.00    0.00
   10    0.87    0.00    0.00    0.00    0.00    0.00   54.40    0.14    0.30    0.02    0.00    0.00    0.00    0.00    0.00     0.00    0.00    0.00    0.00
   11    2.69    0.00    0.00    0.00    0.00    0.00   54.38    0.04    0.12    0.02    0.00    0.00    0.00    0.00    0.00     0.00    0.00    0.00    0.00
   12    1.95    0.00    0.00    0.00    0.00    0.00   54.37    0.03    0.08    0.02    0.00    0.00    0.00    0.00    0.00     0.00    0.00    0.00    0.00
   13    0.66    0.00    0.00    0.00    0.00    0.00   54.36    0.03    0.06    0.02    0.00    0.00    0.00    0.00    0.00     0.00    0.00    0.00    0.00
   14    0.00    0.00    0.00    0.00    0.00    0.00   54.36    0.02    0.03    0.02    0.00    0.00    0.00    0.00    0.00     0.00    0.00    0.00    0.00
   15    0.19    0.00    0.00    0.00    0.00    0.00   54.35    0.03    0.05    0.02    0.00    0.00    0.00    0.00    0.00     0.00    0.00    0.00    0.00
   16    0.56    0.00    0.00    0.00    0.00    0.00   54.31    0.06    0.12    0.02    0.00    0.00    0.00    0.00    0.00     0.00    0.00    0.00    0.00
   17    0.00    0.00    0.00    0.00    0.00    0.00   54.30    0.03    0.05    0.02    0.00    0.00    0.00    0.00    0.00     0.00    0.00    0.00    0.00
   18    2.10    0.00    0.00    0.00    0.00    0.00   54.27    0.05    0.12    0.02    0.00    0.00    0.00    0.00    0.00     0.00    0.00    0.00    0.00
   19    0.93    0.00    0.00    0.00    0.00    0.00   54.23    0.05    0.15    0.02    0.00    0.00    0.00    0.00    0.00     0.00    0.00    0.00    0.00
   20    1.23    0.00    0.00    0.00    0.00    0.00   54.19    0.06    0.17    0.02    0.00    0.00    0.00    0.00    0.00     0.00    0.00    0.00    0.00
   21    1.58    0.00    0.00    0.00    0.00    0.00   54.18    0.02    0.05    0.02    0.00    0.00    0.00    0.00    0.00     0.00    0.00    0.00    0.00
   22    0.28    0.00    0.00    0.00    0.00    0.00   54.17    0.03    0.05    0.02    0.00    0.00    0.00    0.00    0.00     0.00    0.00    0.00    0.00
   23    0.00    0.00    0.00    0.00    0.00    0.00   54.16    0.03    0.05    0.02    0.00    0.00    0.00    0.00    0.00     0.00    0.00    0.00    0.00
   24    1.38    0.00    0.00    0.00    0.00    0.00   54.15    0.03    0.05    0.02    0.00    0.00    0.00    0.00    0.00     0.00    0.00    0.00    0.00
   25    1.42    0.00    0.00    0.00    0.00    0.00   54.13    0.03    0.07    0.02    0.00    0.00    0.00    0.00    0.00     0.00    0.00    0.00    0.00
   26    0.62    0.00    0.00    0.00    0.00    0.00   54.11    0.03    0.07    0.02    0.00    0.00    0.00    0.00    0.00     0.00    0.00    0.00    0.00
   27    2.01    0.00    0.00    0.00    0.00    0.00   54.09    0.03    0.08    0.02    0.00    0.00    0.00    0.00    0.00     0.00    0.00    0.00    0.00
   28    1.13    0.00    0.00    0.00    0.00    0.00   54.07    0.03    0.06    0.02    0.00    0.00    0.00    0.00    0.00     0.00    0.00    0.00    0.00
   29    1.66    0.00    0.00    0.00    0.00    0.00   54.05    0.03    0.08    0.02    0.00    0.00    0.00    0.00    0.00     0.00    0.00    0.00    0.00
   30    0.42    0.00    0.00    0.00    0.00    0.00   54.02    0.04    0.10    0.02    0.00    0.00    0.00    0.00    0.00     0.00    0.00    0.00    0.00
   31    0.00    0.00    0.00    0.00    0.00    0.00   53.99    0.04    0.10    0.02    0.00    0.00    0.00    0.00    0.00     0.00    0.00    0.00    0.00
    1   21.68    0.00    0.09    0.00    0.00    0.00   53.99    2.39    5.76    0.65    0.00    0.00    0.00    0.00    0.00     0.00    0.00    0.00    0.00
   32    0.00    0.00    0.00    0.00    0.00    0.00   53.97    0.04    0.07    0.02    0.00    0.00    0.00    0.00    0.00     0.00    0.00    0.00    0.00
   33    0.23    0.00    0.00    0.00    0.00    0.00   53.91    0.09    0.29    0.02    0.00    0.00    0.00    0.00    0.00     0.00    0.00    0.00    0.00
   34    0.00    0.00    0.00    0.00    0.00    0.00   53.88    0.04    0.10    0.02    0.00    0.00    0.00    0.00    0.00     0.00    0.00    0.00    0.00
   35    0.00    0.00    0.00    0.00    0.00    0.00   53.85    0.05    0.13    0.02    0.00    0.00    0.00    0.00    0.00     0.00    0.00    0.00    0.00
   36    0.00    0.00    0.00    0.00    0.00    0.00   53.82    0.05    0.10    0.02    0.00    0.00    0.00    0.00    0.00     0.00    0.00    0.00    0.00
   37    0.00    0.00    0.00    0.00    0.00    0.00   53.78    0.07    0.13    0.02    0.00    0.00    0.00    0.00    0.00     0.00    0.00    0.00    0.00
   38    0.00    0.00    0.00    0.00    0.00    0.00   53.71    0.09    0.20    0.02    0.00    0.00    0.00    0.00    0.00     0.00    0.00    0.00    0.00
   39    0.00    0.00    0.00    0.00    0.00    0.00   53.68    0.05    0.15    0.02    0.00    0.00    0.00    0.00    0.00     0.00    0.00    0.00    0.00
   40    0.68    0.00    0.00    0.00    0.00    0.00   53.66    0.04    0.08    0.02    0.00    0.00    0.00    0.00    0.00     0.00    0.00    0.00    0.00
   41    1.06    0.00    0.00    0.00    0.00    0.00   53.62    0.05    0.19    0.02    0.00    0.00    0.00    0.00    0.00     0.00    0.00    0.00    0.00
   42    0.42    0.00    0.00    0.00    0.00    0.00   53.59    0.05    0.14    0.02    0.00    0.00    0.00    0.00    0.00     0.00    0.00    0.00    0.00
   43    0.61    0.00    0.00    0.00    0.00    0.00   53.53    0.07    0.20    0.02    0.00    0.00    0.00    0.00    0.00     0.00    0.00    0.00    0.00
   44    0.51    0.00    0.00    0.00    0.00    0.00   53.51    0.05    0.10    0.02    0.00    0.00    0.00    0.00    0.00     0.00    0.00    0.00    0.00
   45    0.00    0.00    0.00    0.00    0.00    0.00   53.46    0.08    0.20    0.02    0.00    0.00    0.00    0.00    0.00     0.00    0.00    0.00    0.00
   46    0.00    0.00    0.00    0.00    0.00    0.00   53.39    0.09    0.28    0.02    0.00    0.00    0.00    0.00    0.00     0.00    0.00    0.00    0.00
   47    0.00    0.00    0.00    0.00    0.00    0.00   53.32    0.10    0.35    0.02    0.00    0.00    0.00    0.00    0.00     0.00    0.00    0.00    0.00
   48    0.34    0.00    0.00    0.00    0.00    0.00   53.25    0.09    0.28    0.02    0.00    0.00    0.00    0.00    0.00     0.00    0.00    0.00    0.00
   49    0.39    0.00    0.00    0.00    0.00    0.00   53.17    0.11    0.38    0.02    0.00    0.00    0.00    0.00    0.00     0.00    0.00    0.00    0.00
   50    0.00    0.00    0.00    0.00    0.00    0.00   53.13    0.07    0.18    0.02    0.00    0.00    0.00    0.00    0.00     0.00    0.00    0.00    0.00
   51    0.00    0.00    0.00    0.00    0.00    0.00   53.04    0.12    0.39    0.02    0.00    0.00    0.00    0.00    0.00     0.00    0.00    0.00    0.00
   52    0.00    0.00    0.00    0.00    0.00    0.00   52.94    0.15    0.47    0.02    0.00    0.00    0.00    0.00    0.00     0.00    0.00    0.00    0.00
   53    0.00    0.07    0.00    0.00    0.00    0.00   53.87    0.32    0.76    0.08    0.13    0.01    0.00    0.00    0.00     0.37    0.00    0.05    0.00
   54    0.40    0.00    0.00    0.00    0.00    0.00   53.71    0.27    0.73    0.02    0.00    0.00    0.00    0.00    0.00     0.01    0.00    0.00    0.00
   55    1.57    0.00    0.00    0.00    0.00    0.00   53.50    0.25    0.64    0.02    0.00    0.00    0.00    0.00    0.00     0.00    0.00    0.00    0.00
   56    0.74    0.00    0.00    0.00    0.00    0.00   53.38    0.14    0.33    0.02    0.00    0.00    0.00    0.00    0.00     0.00    0.00    0.00    0.00
   57    0.00    0.00    0.00    0.00    0.00    0.00   53.27    0.14    0.35    0.02    0.00    0.00    0.00    0.00    0.00     0.00    0.00    0.00    0.00
   58    0.00    0.00    0.00    0.00    0.00    0.00   53.16    0.14    0.36    0.02    0.00    0.00    0.00    0.00    0.00     0.00    0.00    0.00    0.00
   59    0.00    0.00    0.00    0.00    0.00    0.00   53.03    0.20    0.49    0.02    0.00    0.00    0.00    0.00    0.00     0.00    0.00    0.00    0.00
   60    0.29    0.00    0.00    0.00    0.00    0.00   52.80    0.27    0.74    0.02    0.00    0.00    0.00    0.00    0.00     0.00    0.00    0.00    0.00
    2    7.24    0.07    0.04    0.00    0.00    0.00   52.80    3.28    8.82    0.60    0.13    0.01    0.00    0.00    0.00     0.38    0.00    0.05    0.00
   61    0.00    0.00    0.00    0.00    0.00    0.00   52.68    0.17    0.44    0.02    0.00    0.00    0.00    0.00    0.00     0.00    0.00    0.00    0.00
   62    0.00    0.00    0.00    0.00    0.00    0.00   52.58    0.23    0.59    0.02    0.00    0.00    0.00    0.00    0.00     0.00    0.00    0.00    0.00
   63    0.00    0.00    0.00    0.00    0.00    0.00   52.51    0.22    0.47    0.02    0.00    0.00    0.00    0.00    0.00     0.00    0.00    0.00    0.00
   64    0.00    0.10    0.00    0.00    0.00    0.00   53.18    0.30    0.61    0.11    0.10    0.01    0.00    0.00    0.00     0.36    0.00    0.04    0.00
   65    0.76    0.04    0.00    0.00    0.00    0.00   53.65    0.17    0.32    0.06    0.03    0.00    0.00    0.00    0.00     0.23    0.00    0.03    0.00
   66    1.20    0.13    0.00    0.00    0.00    0.00   54.15    0.28    0.63    0.13    0.10    0.00    0.00    0.00    0.00     0.34    0.00    0.04    0.00
   67    0.66    0.00    0.00    0.00    0.00    0.00   53.96    0.25    0.53    0.03    0.00    0.00    0.00    0.00    0.00     0.03    0.00    0.00    0.00
   68    0.00    0.12    0.00    0.00    0.00    0.00   54.57    0.31    0.65    0.13    0.09    0.00    0.00    0.00    0.00     0.31    0.00    0.04    0.00
   69    0.52    0.06    0.00    0.00    0.00    0.00   54.77    0.30    0.62    0.08    0.02    0.00    0.00    0.00    0.00     0.15    0.00    0.02    0.00
   70    0.32    0.01    0.00    0.00    0.00    0.00   54.95    0.26    0.56    0.03    0.00    0.00    0.00    0.00    0.00     0.05    0.00    0.01    0.00
   71    1.07    0.28    0.00    0.00    0.00    0.00   55.96    0.19    0.43    0.27    0.24    0.00    0.00    0.00    0.00     0.78    0.00    0.10    0.00
   72    0.28    0.67    0.00    0.00    0.00    0.00   57.04    0.37    0.78    0.63    0.54    0.00    0.00    0.00    0.00     2.44    0.00    0.30    0.00
   73    0.00    1.75    0.00    0.00    0.00    0.00   58.75    0.52    1.13    1.67    1.63    0.00    0.00    0.00    0.00     5.90    0.00    0.72    0.00
   74    0.00    0.10    0.00    0.00    0.00    0.00   58.88    0.56    1.16    0.23    0.01    0.00    0.00    0.00    0.00     0.54    0.00    0.07    0.00
   75    0.00    0.23    0.00    0.00    0.00    0.00   59.21    0.46    0.76    0.28    0.20    0.00    0.00    0.00    0.00     0.57    0.00    0.07    0.00
   76    0.00    0.18    0.00    0.00    0.00    0.00   59.48    0.83    1.20    0.21    0.05    0.00    0.00    0.00    0.00     0.33    0.00    0.04    0.00
   77    0.00    0.19    0.00    0.00    0.00    0.00   59.39    1.17    1.47    0.18    0.04    0.00    0.00    0.00    0.00     0.10    0.00    0.01    0.00
   78    0.39    0.80    0.00    0.00    0.00    0.00   59.62    1.15    1.50    0.66    0.32    0.00    0.00    0.00    0.00     0.24    0.00    0.03    0.00
   79    4.38    1.49    0.00    0.00    0.00    0.00   61.54    0.96    1.22    1.48    1.10    0.00    0.00    0.00    0.00     1.95    0.00    0.24    0.00
   80    2.66    0.21    0.00    0.00    0.00    0.00   61.59    0.73    0.92    0.34    0.04    0.00    0.00    0.00    0.00     0.49    0.00    0.06    0.00
   81    0.00    0.00    0.00    0.00    0.00    0.00   60.50    1.17    1.45    0.09    0.00    0.00    0.00    0.00    0.00     0.07    0.00    0.01    0.00
   82    0.00    0.00    0.00    0.00    0.00    0.00   59.50    1.07    1.39    0.04    0.00    0.00    0.00    0.00    0.00     0.02    0.00    0.00    0.00
   83    0.00    0.00    0.00    0.00    0.00    0.00   58.53    1.03    1.46    0.03    0.00    0.00    0.00    0.00    0.00     0.01    0.00    0.00    0.00
   84    0.00    0.00    0.00    0.00    0.00    0.00   57.54    1.04    1.58    0.02    0.00    0.00    0.00    0.00    0.00     0.00    0.00    0.00    0.00
   85    0.00    0.00    0.00    0.00    0.00    0.00   56.62    1.02    1.67    0.02    0.00    0.00    0.00    0.00    0.00     0.00    0.00    0.00    0.00
   86    0.00    0.00    0.00    0.00    0.00    0.00   55.74    0.98    1.71    0.02    0.00    0.00    0.00    0.00    0.00     0.00    0.00    0.00    0.00
   87    0.59    0.12    0.00    0.00    0.00    0.00   55.53    0.89    1.48    0.11    0.06    0.00    0.00    0.00    0.00     0.19    0.00    0.02    0.00
   88    0.83    0.02    0.00    0.00    0.00    0.00   55.15    0.75    1.32    0.05    0.00    0.00    0.00    0.00    0.00     0.06    0.00    0.01    0.00
   89    0.65    0.00    0.00    0.00    0.00    0.00   54.63    0.59    1.11    0.02    0.00    0.00    0.00    0.00    0.00     0.02    0.00    0.00    0.00
   90    0.54    0.07    0.00    0.00    0.00    0.00   54.51    0.76    1.30    0.07    0.03    0.00    0.00    0.00    0.00     0.09    0.00    0.01    0.00
   91    0.45    0.00    0.00    0.00    0.00    0.00   53.89    0.77    1.51    0.03    0.00    0.00    0.00    0.00    0.00     0.01    0.00    0.00    0.00
    3   15.31    6.57    0.03    0.00    0.00    0.00   53.89   19.50   31.98    7.09    4.59    0.02    0.00    0.00    0.00    15.27    0.00    1.87    0.00
   92    0.00    0.00    0.00    0.00    0.00    0.00   53.33    0.62    1.31    0.02    0.00    0.00    0.00    0.00    0.00     0.00    0.00    0.00    0.00
   93    0.00    0.04    0.00    0.00    0.00    0.00   52.66    0.97    1.87    0.05    0.03    0.00    0.00    0.00    0.00     0.08    0.00    0.01    0.00
   94    0.00    0.00    0.00    0.00    0.00    0.00   51.91    0.82    1.65    0.02    0.00    0.00    0.00    0.00    0.00     0.02    0.00    0.00    0.00
   95    0.30    0.01    0.00    0.00    0.00    0.00   51.54    0.72    1.36    0.03    0.02    0.00    0.00    0.00    0.00     0.05    0.00    0.01    0.00
   96    0.59    2.37    0.00    0.00    0.00    0.00   52.35    1.23    2.45    1.95    2.92    0.00    0.00    0.00    0.00     1.64    0.00    0.20    0.00
   97    0.00    5.80    0.01    0.00    0.00    0.00   53.80    1.23    2.81    5.18    3.45    0.00    0.00    0.00    0.00     2.80    0.00    0.35    0.00
[...]
    591  20   soil-91    .118E+01   82.78  127.50    7.96    0.00    0.00    0.00    0.20  645.58  115.97   90.85  601.26  366.74    0.52   39.58    0.00    0.00  115.97
    592  20   soil-91    .115E+01   82.78  127.50   18.38    0.00    0.00    0.00    0.20  645.58  112.35  121.69  598.85  824.53    0.83   39.12    0.00    0.00  112.35
    593  21   soil-101   .315E+00   38.70   16.23    7.60    0.00    0.00    0.00    0.20  583.25    0.00   57.86  516.93    0.00    0.01    0.00    0.54    0.00    0.00
    594  21   soil-101   .167E+00   38.70   16.23    3.06    0.00    0.00    0.00    0.20  583.25    0.02   17.47  518.74    0.00    0.00    0.00    0.40    0.00    0.02
    595  21   soil-111   .321E+00   78.48  103.43   14.88    0.00    0.00    0.00    0.20  583.25   55.79  155.03  628.30    0.38    0.24   11.50    8.96    0.00   55.79
    596  21   soil-111   .122E+01   78.48  103.43    0.98    0.00    0.00    0.00    0.20  583.25  103.56    2.48  642.56    0.05    0.06    1.60    9.23    0.00  103.56
    597  21   soil-111   .414E+00   78.48  103.43    8.99    0.00    0.00    0.00    0.20  583.25   67.72  116.20  632.21    0.29    0.21    8.89    9.01    0.00   67.72
    598  21   soil-121   .106E+01   38.70  167.40    7.57    0.00    0.00    0.00    0.20  583.25    0.00  299.63  602.68    0.00    0.45    0.00    9.95    0.00    0.00
    599  21   soil-121   .642E+00   38.70  167.40    2.31    0.00    0.00    0.00    0.20  583.25    0.00  131.27  635.86    0.00    0.08    0.00    9.79    0.00    0.00
    600  21   soil-121   .262E+00   38.70  167.40   13.09    0.00    0.00    0.00    0.20  583.25    0.00  326.34  576.97    0.00    0.48    0.00    9.90    0.00    0.00
    601  21   soil-122   .765E+00   38.70  160.20    5.78    0.00    0.00    0.00    0.20  583.25    0.00  286.05  608.74    0.00    0.44    0.00    9.95    0.00    0.00
    602  21   soil-122   .162E+01   38.70  160.20    2.97    0.00    0.00    0.00    0.20  583.25    0.00  147.01  628.14    0.00    0.09    0.00    9.78    0.00    0.00
    603  21   soil-111   .263E+03   84.93  103.43    2.02    0.00    0.00    0.00    0.20  583.25   86.59   11.84  624.33   10.72    0.12  171.95    1.21    0.84   86.59
    604  21   soil-111   .124E+03   84.93  103.43    6.93    0.00    0.00    0.00    0.20  583.25   64.94   83.59  609.70   38.25    0.22  265.96    1.17    0.82   64.94
    605  21   soil-121   .488E+02   52.67  167.40    2.83    0.00    0.00    0.00    0.20  583.25    0.52  106.45  626.75    0.02    0.06    0.23    1.27    0.88    0.52
    606  21   soil-121   .334E+02   52.67  167.40    6.37    0.00    0.00    0.00    0.20  583.25    0.00  231.30  545.49    0.00    0.13    0.00    1.16    0.81    0.00
    607  21   soil-122   .645E+01   52.67  160.20    6.60    0.00    0.00    0.00    0.20  583.25    0.00  234.71  542.49    0.00    0.13    0.00    1.17    0.81    0.00
    608  21   soil-122   .436E+02   52.67  160.20    2.34    0.00    0.00    0.00    0.20  583.25    0.63   73.13  623.81    0.02    0.04    0.24    1.29    0.89    0.63
    609  21   soil-111   .270E+01   98.00  103.43    6.70    0.00    0.00    0.00    0.20  583.25    0.00    0.00  897.46    0.00    0.00    0.00    0.00    0.00    0.00
    610  21   soil-111   .154E+02   98.00  103.43    1.44    0.00    0.00    0.00    0.20  583.25    0.00    0.00  897.46    0.00    0.00    0.00    0.00    0.00    0.00
    611  21   soil-121   .126E+01   98.00  167.40    1.64    0.00    0.00    0.00    0.20  583.25    0.00    0.00  897.46    0.00    0.00    0.00    0.00    0.00    0.00
    612  21   soil-122   .354E+00   98.00  160.20    7.70    0.00    0.00    0.00    0.20  583.25    0.00    0.00  897.46    0.00    0.00    0.00    0.00    0.00    0.00
    613  21   soil-122   .178E+01   98.00  160.20    2.41    0.00    0.00    0.00    0.20  583.25    0.00    0.00  897.46    0.00    0.00    0.00    0.00    0.00    0.00
    614  21   soil-101   .239E+01   82.78   16.23    7.47    0.00    0.00    0.00    0.20  583.25   45.96   48.28  471.54  178.51    0.00    0.71    0.00    0.00   45.96
    615  21   soil-101   .636E+00   82.78   16.23    3.35    0.00    0.00    0.00    0.20  583.25   47.40   15.51  474.26   69.09    0.00    0.75    0.00    0.00   47.40
    616  21   soil-101   .627E+00   82.78   16.23   13.25    0.00    0.00    0.00    0.20  583.25   45.05   69.12  469.77  267.36    0.00    0.72    0.00    0.00   45.05
    617  21   soil-111   .233E+02   97.82  103.43    7.94    0.00    0.00    0.00    0.20  583.25  296.43   33.67  444.49 1404.02    1.08  222.21    0.00    0.00  296.43
    618  21   soil-111   .580E+01   97.82  103.43    3.06    0.00    0.00    0.00    0.20  583.25  304.24   10.37  460.20  474.57    0.84  221.22    0.00    0.00  304.24
    619  21   soil-111   .106E+02   97.82  103.43   13.90    0.00    0.00    0.00    0.20  583.25  290.62   47.03  437.31 2256.75    1.19  222.22    0.00    0.00  290.62
    620  21   soil-111   .501E+01   84.93  103.43    2.20    0.00    0.00    0.00    0.20  583.25  100.75   19.47  635.64    0.46    0.77   13.99    0.49    0.00  100.75
    621  21   soil-111   .193E+01   84.93  103.43    6.80    0.00    0.00    0.00    0.20  583.25   77.85   88.54  624.50    0.97    1.10   28.19    0.48    0.00   77.85
    622  21   soil-122   .810E+00   52.67  160.20    2.47    0.00    0.00    0.00    0.20  583.25    0.92  115.55  630.17    0.00    0.32    0.04    0.54    0.00    0.92
    623  22   soil-101   .158E+02   52.67   16.23    2.88    0.00    0.00    0.00    0.20  679.23   31.08   13.03  490.98   20.77    0.00    0.67    0.01    0.01   31.08
    624  22   soil-101   .874E+01   52.67   16.23    6.02    0.00    0.00    0.00    0.20  679.23   30.34   49.84  487.75   38.83    0.00    0.79    0.01    0.01   30.34
    625  22   soil-111   .309E+03   84.93  103.43    1.65    0.00    0.00    0.00    0.20  679.23  130.87   11.00  669.79   15.18    0.11  255.49    1.10    0.76  130.87
    626  22   soil-111   .658E+02   84.93  103.43    6.12    0.00    0.00    0.00    0.20  679.23  105.12   83.56  639.32   79.57    0.21  339.92    1.09    0.76  105.12
    627  22   soil-122   .615E+02   52.67  160.20    2.38    0.00    0.00    0.00    0.20  679.23    2.26  101.05  706.04    0.77    0.10    5.27    1.28    0.89    2.26
    628  22   soil-122   .237E+02   52.67  160.20    6.20    0.00    0.00    0.00    0.20  679.23    0.03  247.03  593.99    0.04    0.20    0.20    1.12    0.78    0.03
    629  22   soil-111   .239E+02   98.00  103.43    1.25    0.00    0.00    0.00    0.20  679.23    0.00    0.00  933.15    0.00    0.00    0.00    0.00    0.00    0.00
    630  22   soil-122   .967E+00   98.00  160.20    5.90    0.00    0.00    0.00    0.20  679.23    0.00    0.00  933.15    0.00    0.00    0.00    0.00    0.00    0.00
    631  22   soil-122   .475E+01   98.00  160.20    2.07    0.00    0.00    0.00    0.20  679.23    0.00    0.00  933.15    0.00    0.00    0.00    0.00    0.00    0.00
    632  22   soil-101   .114E+02   82.78   16.23    7.13    0.00    0.00    0.00    0.20  679.23  111.21   47.78  482.23  353.30    0.00    0.76    0.00    0.00  111.21
    633  22   soil-101   .343E+01   82.78   16.23   14.31    0.00    0.00    0.00    0.20  679.23  109.25   74.12  478.21  610.84    0.00    0.77    0.00    0.00  109.25
    634  22   soil-101   .973E+01   82.78   16.23    3.02    0.00    0.00    0.00    0.20  679.23  114.04   11.65  488.56  149.26    0.00    0.81    0.00    0.00  114.04
    635  22   soil-111   .355E+01   97.82  103.43   13.30    0.00    0.00    0.00    0.20  679.23  360.37   44.27  440.34 2277.53    1.19  222.23    0.00    0.00  360.37
    636  22   soil-111   .195E+02   97.82  103.43    7.57    0.00    0.00    0.00    0.20  679.23  366.31   31.48  447.22 1545.19    1.04  222.22    0.00    0.00  366.31
    637  22   soil-111   .974E+01   97.82  103.43    2.47    0.00    0.00    0.00    0.20  679.23  377.54    6.73  460.73  477.26    0.82  220.59    0.00    0.00  377.54
    638  22   soil-122   .565E+01   82.78  160.20    6.77    0.00    0.00    0.00    0.20  679.23   54.52  231.73  557.68  139.54    0.92   99.72    0.00    0.00   54.52
    639  22   soil-122   .612E+01   82.78  160.20    3.02    0.00    0.00    0.00    0.20  679.23  102.58   89.59  633.14  134.09    0.67  102.15    0.00    0.00  102.58
    640  22   soil-111   .657E+02   84.93  103.43    2.73    0.00    0.00    0.00    0.20  679.23  181.19    4.52  688.21    0.97    0.74   27.99    0.55    0.00  181.19
    641  22   soil-122   .190E+01   52.67  160.20    5.87    0.00    0.00    0.00    0.20  679.23    0.48  286.52  667.36    0.00    0.95    0.06    0.56    0.00    0.48
    642  22   soil-122   .625E+01   52.67  160.20    2.73    0.00    0.00    0.00    0.20  679.23    5.57  137.53  709.97    0.03    0.48    0.43    0.60    0.00    5.57
    643  23   soil-101   .199E+02   52.67   16.23    2.88    0.00    0.00    0.00    0.20  636.40    1.53   13.30  475.26    2.61    0.00    0.10    0.01    0.01    1.53
    644  23   soil-101   .194E+02   52.67   16.23    7.05    0.00    0.00    0.00    0.20  636.40    1.29   55.82  473.39    5.34    0.00    0.16    0.02    0.01    1.29
    645  23   soil-111   .113E+02   84.93  103.43    5.90    0.00    0.00    0.00    0.20  636.40  100.33   83.21  608.49   32.51    0.20  259.98    1.15    0.80  100.33
    646  23   soil-111   .660E+02   84.93  103.43    2.19    0.00    0.00    0.00    0.20  636.40  123.92   13.37  617.84   13.91    0.10  190.80    1.19    0.83  123.92
    647  23   soil-122   .341E+02   52.67  160.20    6.80    0.00    0.00    0.00    0.20  636.40    0.00  271.73  569.17    0.00    0.09    0.00    1.21    0.84    0.00
    648  23   soil-122   .836E+02   52.67  160.20    2.16    0.00    0.00    0.00    0.20  636.40    0.97  114.39  620.84    0.04    0.04    0.50    1.27    0.89    0.97
    649  23   soil-101   .685E+00   98.00   16.23    2.18    0.00    0.00    0.00    0.20  636.40    0.00    0.00  873.69    0.00    0.00    0.00    0.00    0.00    0.00
    650  23   soil-101   .482E+00   98.00   16.23    6.77    0.00    0.00    0.00    0.20  636.40    0.00    0.00  873.69    0.00    0.00    0.00    0.00    0.00    0.00
    651  23   soil-111   .484E+01   98.00  103.43    1.73    0.00    0.00    0.00    0.20  636.40    0.00    0.00  873.69    0.00    0.00    0.00    0.00    0.00    0.00
    652  23   soil-122   .569E+00   98.00  160.20    6.72    0.00    0.00    0.00    0.20  636.40    0.00    0.00  873.69    0.00    0.00    0.00    0.00    0.00    0.00
    653  23   soil-122   .421E+01   98.00  160.20    2.69    0.00    0.00    0.00    0.20  636.40    0.00    0.00  873.69    0.00    0.00    0.00    0.00    0.00    0.00
    654  23   soil-101   .121E+02   82.78   16.23    2.94    0.00    0.00    0.00    0.20  636.40   67.31   15.31  469.68  129.02    0.00    0.81    0.00    0.00   67.31
    655  23   soil-101   .102E+02   82.78   16.23   14.31    0.00    0.00    0.00    0.20  636.40   64.00   77.79  465.43  605.74    0.00    0.77    0.00    0.00   64.00
    656  23   soil-101   .251E+02   82.78   16.23    7.67    0.00    0.00    0.00    0.20  636.40   65.32   52.37  467.35  348.30    0.00    0.76    0.00    0.00   65.32
    657  23   soil-111   .651E+01   97.82  103.43    7.44    0.00    0.00    0.00    0.20  636.40  346.61   33.95  457.91 1490.78    1.14  222.21    0.00    0.00  346.61
    658  23   soil-111   .504E+01   97.82  103.43    2.80    0.00    0.00    0.00    0.20  636.40  351.93    8.25  478.16  536.78    0.93  222.42    0.00    0.00  351.93
    659  23   soil-122   .432E+01   82.78  160.20    2.83    0.00    0.00    0.00    0.20  636.40   79.37  106.80  584.85  126.49    0.70   95.74    0.00    0.00   79.37
    660  23   soil-122   .811E+01   82.78  160.20    7.62    0.00    0.00    0.00    0.20  636.40   26.90  268.82  541.56  116.76    0.99  104.77    0.00    0.00   26.90
    661  23   soil-122   .315E+01   82.78  160.20   14.34    0.00    0.00    0.00    0.20  636.40   21.20  299.32  516.09  150.07    0.93  106.44    0.00    0.00   21.20
    662  23   soil-101   .143E+01   52.67   16.23    6.55    0.00    0.00    0.00    0.20  636.40    2.96   55.57  487.67    5.49    0.01    0.23    0.02    0.00    2.96
    663  23   soil-101   .413E+01   52.67   16.23    2.33    0.00    0.00    0.00    0.20  636.40    3.38   12.18  488.57    2.85    0.00    0.15    0.01    0.00    3.38
    664  23   soil-111   .137E+01   84.93  103.43    6.42    0.00    0.00    0.00    0.20  636.40  112.20   93.96  628.68    1.94    1.17   52.03    0.34    0.00  112.20
    665  23   soil-111   .756E+01   84.93  103.43    1.71    0.00    0.00    0.00    0.20  636.40  139.92   12.30  638.13    0.74    0.84   22.08    0.35    0.00  139.92
    666  23   soil-122   .328E+00   52.67  160.20    6.62    0.00    0.00    0.00    0.20  636.40    0.00  300.71  607.25    0.00    0.79    0.00    0.37    0.00    0.00
    667  23   soil-122   .655E+00   52.67  160.20    2.66    0.00    0.00    0.00    0.20  636.40    1.11  142.30  636.81    0.01    0.33    0.12    0.40    0.00    1.11



                AVE MONTHLY BASIN VALUES
                   SNOW                      WATER               SED
  MON     RAIN     FALL   SURF Q    LAT Q    YIELD       ET    YIELD      PET
          (MM)     (MM)     (MM)     (MM)     (MM)     (MM)   (T/HA)     (MM)
    1    10.14     9.82     0.00     0.07     0.58     2.72     0.00     7.33
    2     6.47     5.68     2.25     0.03     2.70     5.82     2.62    13.63
    3    16.84    10.33     7.23     0.04     7.68    19.41     3.55    33.26
    4    28.85     2.97     9.25     0.99    10.65    39.01     9.84    76.56
    5    62.55     0.21     3.57     3.78     7.70    60.05     9.80   107.88
    6    87.93     0.00     6.12     7.66    14.08    91.62    21.28   117.41
    7   137.43     0.00    27.27    15.42    42.82   103.09    49.47   110.34
    8   112.44     0.00    26.73    13.33    40.57    97.69    49.18   105.43
    9   108.07     0.00    20.51    11.37    32.29    66.70    32.91    73.01
   10    29.45     2.44     3.59     4.79     8.97    39.26     6.48    46.41
   11     4.08     3.44     0.22     0.80     1.58    13.49     0.08    20.31
   12     4.47     4.27     0.00     0.22     0.80     5.68     0.00    10.72

     AVE ANNUAL BASIN STRESS DAYS
               WATER STRESS DAYS =     3.28
               TEMPERATURE STRESS DAYS =    94.38
               NITROGEN STRESS DAYS =    54.45
               PHOSPHORUS STRESS DAYS =     0.52
               AERATION STRESS DAYS =     0.02
1
    SWAT Dec 11 2014    VER 2012/Rev 635                                            

    General Input/Output section (file.cio):                                        
    2020/2/22 0:00:00 ARCGIS-SWAT interface AV                                      
                                                                                    
         AVE ANNUAL BASIN VALUES

              PRECIP =    608.8 MM
              SNOW FALL =   39.23 MM
              SNOW MELT =    38.06 MM
              SUBLIMATION =     0.23 MM
              SURFACE RUNOFF Q =   106.76 MM
              LATERAL SOIL Q =   58.52 MM
              TILE Q =     0.00 MM
              GROUNDWATER (SHAL AQ) Q =     0.00 MM
              GROUNDWATER (DEEP AQ) Q =     5.16 MM
              REVAP (SHAL AQ => SOIL/PLANTS) =   43.86 MM
              DEEP AQ RECHARGE =     5.32 MM
              TOTAL AQ RECHARGE =  106.44 MM
              TOTAL WATER YLD =   170.44 MM
              PERCOLATION OUT OF SOIL =  112.08 MM
              ET =    544.6 MM
              PET =    722.5MM
              TRANSMISSION LOSSES =     0.00 MM
              SEPTIC INFLOW =       0.00 MM
              TOTAL SEDIMENT LOADING =   185.243 T/HA
              TILE FROM IMPOUNDED WATER =     0.000 (MM)
              EVAPORATION FROM IMPOUNDED WATER =     0.000 (MM)
              SEEPAGE INTO SOIL FROM IMPOUNDED WATER =    0.000 (MM)
              OVERFLOW FROM IMPOUNDED WATER =    0.000 (MM)
1
    SWAT Dec 11 2014    VER 2012/Rev 635                                            

    General Input/Output section (file.cio):                                        
    2020/2/22 0:00:00 ARCGIS-SWAT interface AV                                      
                                                                                    
              AVE ANNUAL BASIN VALUES


              NUTRIENTS
                   ORGANIC N =    85.888 (KG/HA)
                   ORGANIC P =    10.549 (KG/HA)
                   NO3 YIELD (SQ) =     0.142 (KG/HA)
                   NO3 YIELD (LAT) =    0.104 (KG/HA)
                   NO3 YIELD (TILE) =    0.000 (KG/HA)
                   SOLP YIELD (TILE) =    0.000(KG/HA)
                   SOLP YIELD (SURF INLET RISER) =    0.000 (KG/HA)
                   SOL P YIELD =    0.027 (KG/HA)
                   NO3 LEACHED =     0.145 (KG/HA)
                   P LEACHED =     0.043 (KG/HA)
                   N UPTAKE =    10.519 (KG/HA)
                   P UPTAKE =    2.411 (KG/HA)
                   NO3 YIELD (GWQ) =     0.000 (KG/HA)
                   ACTIVE TO SOLUTION P FLOW =        -0.207 (KG/HA)
                   ACTIVE TO STABLE P FLOW =         0.388 (KG/HA)
                   N FERTILIZER APPLIED =     0.012 (KG/HA)
                   P FERTILIZER APPLIED =     0.000 (KG/HA)
                   N FIXATION =     0.000 (KG/HA)
                   DENITRIFICATION =     0.549 (KG/HA)
                   HUMUS MIN ON ACTIVE ORG N =     4.671 (KG/HA)
                   ACTIVE TO STABLE ORG N =    -0.914 (KG/HA)
                   HUMUS MIN ON ACTIVE ORG P =    0.801 (KG/HA)
                   MIN FROM FRESH ORG N =    8.612 (KG/HA)
                   MIN FROM FRESH ORG P =    1.846 (KG/HA)
                   NO3 IN RAINFALL =     0.000 (KG/HA)
                   INITIAL NO3 IN SOIL =      32.141 (KG/HA)
                   FINAL NO3 IN SOIL =         5.949 (KG/HA)
                   INITIAL ORG N IN SOIL =   15716.830 (KG/HA)
                   FINAL ORG N IN SOIL =     15186.104 (KG/HA)
                   INITIAL MIN P IN SOIL =    1477.124 (KG/HA)
                   FINAL MIN P IN SOIL =      1431.931 (KG/HA)
                   INITIAL ORG P IN SOIL =    1925.312 (KG/HA)
                   FINAL ORG P IN SOIL =    1860.863 (KG/HA)
                   NO3 IN FERT =     0.012 (KG/HA)
                   AMMONIA IN FERT =     0.000 (KG/HA)
                   ORG N IN FERT =     0.000 (KG/HA)
                   MINERAL P IN FERT =     0.000 (KG/HA)
                   ORG P IN FERT =     0.000 (KG/HA)
                   N REMOVED IN YIELD =     2.132 (KG/HA)
                   P REMOVED IN YIELD =     0.651 (KG/HA)
                   AMMONIA VOLATILIZATION =     0.000 (KG/HA)
                   AMMONIA NITRIFICATION =      0.000 (KG/HA)
                   NO3 EVAP-LAYER 2 TO 1 =    9.211

                   DIE-GRO P Q =       0.0 (No/HA)
                   DIE-GRO LP Q =       0.0 (No/HA)
                   DIE-GRO P SED =      0.0 (No/HA)
                   DIE-GRO LP SED =      0.0 (No/HA)
                   BACT P RUNOFF =      0.0 (No/HA)
                   BACT LP RUNOFF =      0.0 (No/HA)
                   BACT P SEDIMENT =      0.0 (No/HA)
                   BACT LP SEDIMENT =      0.0 (No/HA)
                   BACT P INCORP =      0.0 (No/HA)
                   BACT LP INCORP =      0.0 (No/HA)

                   NITRATE SEPTIC =         0.00 (kg/ha)
                   AMMONIA SEPTIC =         0.00 (kg/ha)
                   ORG N SEPTIC =         0.00 (kg/ha)
                   FRESH ORGN SEPTIC =         0.00 (kg/ha)
                   ORG P SEPTIC =         0.00 (kg/ha)
                   FRESH ORGP SEPTIC =         0.00 (kg/ha)
                   SOL P SEPTIC =         0.00 (kg/ha)
                   BOD SEPTIC =         0.00 (kg/ha)
